


                               __________________________________________
                              |                                          |
                              |  NUMERICAL ELECTROMAGNETICS CODE (nec2c) |
                              |   Translated to 'C' in Double Precision  |
                              |__________________________________________|



                               ---------------- COMMENTS ----------------
                               --- NEC2 Input File created or edited by xnec2c 4.1.1 ---
                               --- End Comments ---



                               -------- STRUCTURE SPECIFICATION --------
                                     COORDINATES MUST BE INPUT IN
                                     METERS OR BE SCALED TO METERS
                                     BEFORE STRUCTURE INPUT IS ENDED

  WIRE                                                                                 SEG FIRST  LAST  TAG
   No:        X1         Y1         Z1         X2         Y2         Z2       RADIUS   No:   SEG   SEG  No:
     1     0.00000    0.00000   -1.00000    0.00000    0.00000    1.00000    0.01500    15     1    15    1

     TOTAL SEGMENTS USED: 15   SEGMENTS IN A SYMMETRIC CELL: 15   SYMMETRY FLAG: 0


                               ---------- SEGMENTATION DATA ----------
                                        COORDINATES IN METERS
                            I+ AND I- INDICATE THE SEGMENTS BEFORE AND AFTER I

   SEG    COORDINATES OF SEGM CENTER     SEGM    ORIENTATION ANGLES    WIRE    CONNECTION DATA   TAG
   No:       X         Y         Z      LENGTH     ALPHA      BETA    RADIUS    I-     I    I+   No:
     1    0.0000    0.0000   -0.9333    0.1333   90.0000    0.0000    0.0150     0     1     2     1
     2    0.0000    0.0000   -0.8000    0.1333   90.0000    0.0000    0.0150     1     2     3     1
     3    0.0000    0.0000   -0.6667    0.1333   90.0000    0.0000    0.0150     2     3     4     1
     4    0.0000    0.0000   -0.5333    0.1333   90.0000    0.0000    0.0150     3     4     5     1
     5    0.0000    0.0000   -0.4000    0.1333   90.0000    0.0000    0.0150     4     5     6     1
     6    0.0000    0.0000   -0.2667    0.1333   90.0000    0.0000    0.0150     5     6     7     1
     7    0.0000    0.0000   -0.1333    0.1333   90.0000    0.0000    0.0150     6     7     8     1
     8    0.0000    0.0000   -0.0000    0.1333   90.0000    0.0000    0.0150     7     8     9     1
     9    0.0000    0.0000    0.1333    0.1333   90.0000    0.0000    0.0150     8     9    10     1
    10    0.0000    0.0000    0.2667    0.1333   90.0000    0.0000    0.0150     9    10    11     1
    11    0.0000    0.0000    0.4000    0.1333   90.0000    0.0000    0.0150    10    11    12     1
    12    0.0000    0.0000    0.5333    0.1333   90.0000    0.0000    0.0150    11    12    13     1
    13    0.0000    0.0000    0.6667    0.1333   90.0000    0.0000    0.0150    12    13    14     1
    14    0.0000    0.0000    0.8000    0.1333   90.0000    0.0000    0.0150    13    14    15     1
    15    0.0000    0.0000    0.9333    0.1333   90.0000    0.0000    0.0150    14    15     0     1



  DATA CARD No:   1 EX   0     1     8     0  1.00000E+00  0.00000E+00  0.00000E+00  0.00000E+00  0.00000E+00  0.00000E+00
  DATA CARD No:   2 FR   0    11     0     0  5.00000E+01  5.00000E+00  0.00000E+00  0.00000E+00  0.00000E+00  0.00000E+00
  DATA CARD No:   3 NH   0     0     0     0  0.00000E+00  0.00000E+00  0.00000E+00  0.00000E+00  0.00000E+00  0.00000E+00
  DATA CARD No:   4 NE   0    10     1    10 -1.35000E+00  0.00000E+00 -1.35000E+00  3.00000E-01  0.00000E+00  3.00000E-01

  WHEN MULTIPLE FREQUENCIES ARE REQUESTED, ONLY ONE NEAR FIELD CARD CAN BE USED -
  LAST CARD READ WILL BE USED
  DATA CARD No:   5 RP   0    19    37  1000  0.00000E+00  0.00000E+00  1.00000E+01  1.00000E+01  0.00000E+00  0.00000E+00


                               --------- FREQUENCY --------
                                FREQUENCY : 5.0000E+01 MHz
                                WAVELENGTH: 5.9960E+00 Mtr

                        APPROXIMATE INTEGRATION EMPLOYED FOR SEGMENTS 
                        THAT ARE MORE THAN 1.000 WAVELENGTHS APART


                          ------ STRUCTURE IMPEDANCE LOADING ------
                                 THIS STRUCTURE IS NOT LOADED


                            -------- ANTENNA ENVIRONMENT --------
                            FREE SPACE


                             ---------- MATRIX TIMING ----------
                               FILL: 0 msec  FACTOR: 0 msec


                        --------- ANTENNA INPUT PARAMETERS ---------
  TAG   SEG       VOLTAGE (VOLTS)         CURRENT (AMPS)         IMPEDANCE (OHMS)        ADMITTANCE (MHOS)     POWER
  No:   No:     REAL      IMAGINARY     REAL      IMAGINARY     REAL      IMAGINARY    REAL       IMAGINARY   (WATTS)
    1     8  1.0000E+00  0.0000E+00  6.9303E-04  4.9148E-03  2.8131E+01 -1.9950E+02  6.9303E-04  4.9148E-03  3.4652E-04


                           -------- CURRENTS AND LOCATION --------
                                  DISTANCES IN WAVELENGTHS

   SEG  TAG    COORDINATES OF SEGM CENTER     SEGM    ------------- CURRENT (AMPS) -------------
   No:  No:       X         Y         Z      LENGTH     REAL      IMAGINARY    MAGN        PHASE
     1    1    0.0000    0.0000   -0.1557   0.02224  1.2937E-04  6.3121E-04  6.4433E-04   78.417
     2    1    0.0000    0.0000   -0.1334   0.02224  2.8722E-04  1.4506E-03  1.4788E-03   78.800
     3    1    0.0000    0.0000   -0.1112   0.02224  4.1059E-04  2.1542E-03  2.1929E-03   79.209
     4    1    0.0000    0.0000   -0.0889   0.02224  5.1145E-04  2.7981E-03  2.8445E-03   79.642
     5    1    0.0000    0.0000   -0.0667   0.02224  5.9040E-04  3.3870E-03  3.4381E-03   80.112
     6    1    0.0000    0.0000   -0.0445   0.02224  6.4724E-04  3.9257E-03  3.9787E-03   80.638
     7    1    0.0000    0.0000   -0.0222   0.02224  6.8155E-04  4.4466E-03  4.4986E-03   81.286
     8    1    0.0000    0.0000   -0.0000   0.02224  6.9303E-04  4.9148E-03  4.9634E-03   81.974
     9    1    0.0000    0.0000    0.0222   0.02224  6.8155E-04  4.4466E-03  4.4986E-03   81.286
    10    1    0.0000    0.0000    0.0445   0.02224  6.4724E-04  3.9257E-03  3.9787E-03   80.638
    11    1    0.0000    0.0000    0.0667   0.02224  5.9040E-04  3.3870E-03  3.4381E-03   80.112
    12    1    0.0000    0.0000    0.0889   0.02224  5.1145E-04  2.7981E-03  2.8445E-03   79.642
    13    1    0.0000    0.0000    0.1112   0.02224  4.1059E-04  2.1542E-03  2.1929E-03   79.209
    14    1    0.0000    0.0000    0.1334   0.02224  2.8722E-04  1.4506E-03  1.4788E-03   78.800
    15    1    0.0000    0.0000    0.1557   0.02224  1.2937E-04  6.3121E-04  6.4433E-04   78.417


                               ---------- POWER BUDGET ---------
                               INPUT POWER   =  3.4652E-04 Watts
                               RADIATED POWER=  3.4652E-04 Watts
                               STRUCTURE LOSS=  0.0000E+00 Watts
                               NETWORK LOSS  =  0.0000E+00 Watts
                               EFFICIENCY    =  100.00 Percent


                             -------- NEAR ELECTRIC FIELDS --------
     ------- LOCATION -------     ------- EX ------    ------- EY ------    ------- EZ ------
      X         Y         Z       MAGNITUDE   PHASE    MAGNITUDE   PHASE    MAGNITUDE   PHASE
    METERS    METERS    METERS     VOLTS/M  DEGREES    VOLTS/M   DEGREES     VOLTS/M  DEGREES
   -1.3500    0.0000   -1.3500   6.9505E-02  -24.51   0.0000E+00    0.00   6.3078E-02 -109.41
   -1.0500    0.0000   -1.3500   9.1405E-02  -18.99   0.0000E+00    0.00   7.9855E-02  -82.30
   -0.7500    0.0000   -1.3500   1.2141E-01  -15.09   0.0000E+00    0.00   1.2073E-01  -56.25
   -0.4500    0.0000   -1.3500   1.5257E-01  -12.77   0.0000E+00    0.00   2.1575E-01  -36.25
   -0.1500    0.0000   -1.3500   1.0736E-01  -11.84   0.0000E+00    0.00   3.9494E-01  -24.92
    0.1500    0.0000   -1.3500   1.0736E-01  168.16   0.0000E+00    0.00   3.9494E-01  -24.92
    0.4500    0.0000   -1.3500   1.5257E-01  167.23   0.0000E+00    0.00   2.1575E-01  -36.25
    0.7500    0.0000   -1.3500   1.2141E-01  164.91   0.0000E+00    0.00   1.2073E-01  -56.25
    1.0500    0.0000   -1.3500   9.1405E-02  161.01   0.0000E+00    0.00   7.9855E-02  -82.30
    1.3500    0.0000   -1.3500   6.9505E-02  155.49   0.0000E+00    0.00   6.3078E-02 -109.41
   -1.3500    0.0000   -1.0500   7.5472E-02  -20.77   0.0000E+00    0.00   7.0840E-02 -115.05
   -1.0500    0.0000   -1.0500   1.1143E-01  -15.82   0.0000E+00    0.00   8.4458E-02  -89.16
   -0.7500    0.0000   -1.0500   1.7945E-01  -12.62   0.0000E+00    0.00   1.2369E-01  -59.61
   -0.4500    0.0000   -1.0500   3.3849E-01  -11.12   0.0000E+00    0.00   2.5570E-01  -33.37
   -0.1500    0.0000   -1.0500   1.0201E+00  -11.21   0.0000E+00    0.00   1.0666E+00  -16.22
    0.1500    0.0000   -1.0500   1.0201E+00  168.79   0.0000E+00    0.00   1.0666E+00  -16.22
    0.4500    0.0000   -1.0500   3.3849E-01  168.88   0.0000E+00    0.00   2.5570E-01  -33.37
    0.7500    0.0000   -1.0500   1.7945E-01  167.38   0.0000E+00    0.00   1.2369E-01  -59.61
    1.0500    0.0000   -1.0500   1.1143E-01  164.18   0.0000E+00    0.00   8.4458E-02  -89.16
    1.3500    0.0000   -1.0500   7.5472E-02  159.23   0.0000E+00    0.00   7.0840E-02 -115.05
   -1.3500    0.0000   -0.7500   7.0798E-02  -18.29   0.0000E+00    0.00   8.0242E-02 -123.73
   -1.0500    0.0000   -0.7500   1.1440E-01  -13.84   0.0000E+00    0.00   8.8995E-02 -104.87
   -0.7500    0.0000   -0.7500   2.0975E-01  -11.13   0.0000E+00    0.00   1.0589E-01  -80.82
   -0.4500    0.0000   -0.7500   4.7775E-01   -9.98   0.0000E+00    0.00   1.5760E-01  -51.25
   -0.1500    0.0000   -0.7500   1.9700E+00  -10.01   0.0000E+00    0.00   2.4195E-01  -29.88
    0.1500    0.0000   -0.7500   1.9700E+00  169.99   0.0000E+00    0.00   2.4195E-01  -29.88
    0.4500    0.0000   -0.7500   4.7775E-01  170.02   0.0000E+00    0.00   1.5760E-01  -51.25
    0.7500    0.0000   -0.7500   2.0975E-01  168.87   0.0000E+00    0.00   1.0589E-01  -80.82
    1.0500    0.0000   -0.7500   1.1440E-01  166.16   0.0000E+00    0.00   8.8995E-02 -104.87
    1.3500    0.0000   -0.7500   7.0798E-02  161.71   0.0000E+00    0.00   8.0242E-02 -123.73
   -1.3500    0.0000   -0.4500   5.1393E-02  -16.78   0.0000E+00    0.00   9.0647E-02 -131.67
   -1.0500    0.0000   -0.4500   8.7927E-02  -12.62   0.0000E+00    0.00   1.0037E-01 -121.73
   -0.7500    0.0000   -0.4500   1.7259E-01  -10.00   0.0000E+00    0.00   1.1008E-01 -115.75
   -0.4500    0.0000   -0.4500   4.1456E-01   -8.43   0.0000E+00    0.00   1.1739E-01 -117.39
   -0.1500    0.0000   -0.4500   1.6322E+00   -7.55   0.0000E+00    0.00   1.0023E-01 -127.17
    0.1500    0.0000   -0.4500   1.6322E+00  172.45   0.0000E+00    0.00   1.0023E-01 -127.17
    0.4500    0.0000   -0.4500   4.1456E-01  171.57   0.0000E+00    0.00   1.1739E-01 -117.39
    0.7500    0.0000   -0.4500   1.7259E-01  170.00   0.0000E+00    0.00   1.1008E-01 -115.75
    1.0500    0.0000   -0.4500   8.7927E-02  167.38   0.0000E+00    0.00   1.0037E-01 -121.73
    1.3500    0.0000   -0.4500   5.1393E-02  163.22   0.0000E+00    0.00   9.0647E-02 -131.67
   -1.3500    0.0000   -0.1500   1.8886E-02  -16.06   0.0000E+00    0.00   9.7940E-02 -136.07
   -1.0500    0.0000   -0.1500   3.3241E-02  -12.00   0.0000E+00    0.00   1.1208E-01 -131.06
   -0.7500    0.0000   -0.1500   6.7914E-02   -9.25   0.0000E+00    0.00   1.3558E-01 -135.08
   -0.4500    0.0000   -0.1500   1.8026E-01   -6.90   0.0000E+00    0.00   2.1003E-01 -152.69
   -0.1500    0.0000   -0.1500   1.1146E+00   -3.76   0.0000E+00    0.00   5.4820E-01 -172.62
    0.1500    0.0000   -0.1500   1.1146E+00  176.24   0.0000E+00    0.00   5.4820E-01 -172.62
    0.4500    0.0000   -0.1500   1.8026E-01  173.10   0.0000E+00    0.00   2.1003E-01 -152.69
    0.7500    0.0000   -0.1500   6.7914E-02  170.75   0.0000E+00    0.00   1.3558E-01 -135.08
    1.0500    0.0000   -0.1500   3.3241E-02  168.00   0.0000E+00    0.00   1.1208E-01 -131.06
    1.3500    0.0000   -0.1500   1.8886E-02  163.94   0.0000E+00    0.00   9.7940E-02 -136.07
   -1.3500    0.0000    0.1500   1.8886E-02  163.94   0.0000E+00    0.00   9.7940E-02 -136.07
   -1.0500    0.0000    0.1500   3.3241E-02  168.00   0.0000E+00    0.00   1.1208E-01 -131.06
   -0.7500    0.0000    0.1500   6.7914E-02  170.75   0.0000E+00    0.00   1.3558E-01 -135.08
   -0.4500    0.0000    0.1500   1.8026E-01  173.10   0.0000E+00    0.00   2.1003E-01 -152.69
   -0.1500    0.0000    0.1500   1.1146E+00  176.24   0.0000E+00    0.00   5.4820E-01 -172.62
    0.1500    0.0000    0.1500   1.1146E+00   -3.76   0.0000E+00    0.00   5.4820E-01 -172.62
    0.4500    0.0000    0.1500   1.8026E-01   -6.90   0.0000E+00    0.00   2.1003E-01 -152.69
    0.7500    0.0000    0.1500   6.7914E-02   -9.25   0.0000E+00    0.00   1.3558E-01 -135.08
    1.0500    0.0000    0.1500   3.3241E-02  -12.00   0.0000E+00    0.00   1.1208E-01 -131.06
    1.3500    0.0000    0.1500   1.8886E-02  -16.06   0.0000E+00    0.00   9.7940E-02 -136.07
   -1.3500    0.0000    0.4500   5.1393E-02  163.22   0.0000E+00    0.00   9.0647E-02 -131.67
   -1.0500    0.0000    0.4500   8.7927E-02  167.38   0.0000E+00    0.00   1.0037E-01 -121.73
   -0.7500    0.0000    0.4500   1.7259E-01  170.00   0.0000E+00    0.00   1.1008E-01 -115.75
   -0.4500    0.0000    0.4500   4.1456E-01  171.57   0.0000E+00    0.00   1.1739E-01 -117.39
   -0.1500    0.0000    0.4500   1.6322E+00  172.45   0.0000E+00    0.00   1.0023E-01 -127.17
    0.1500    0.0000    0.4500   1.6322E+00   -7.55   0.0000E+00    0.00   1.0023E-01 -127.17
    0.4500    0.0000    0.4500   4.1456E-01   -8.43   0.0000E+00    0.00   1.1739E-01 -117.39
    0.7500    0.0000    0.4500   1.7259E-01  -10.00   0.0000E+00    0.00   1.1008E-01 -115.75
    1.0500    0.0000    0.4500   8.7927E-02  -12.62   0.0000E+00    0.00   1.0037E-01 -121.73
    1.3500    0.0000    0.4500   5.1393E-02  -16.78   0.0000E+00    0.00   9.0647E-02 -131.67
   -1.3500    0.0000    0.7500   7.0798E-02  161.71   0.0000E+00    0.00   8.0242E-02 -123.73
   -1.0500    0.0000    0.7500   1.1440E-01  166.16   0.0000E+00    0.00   8.8995E-02 -104.87
   -0.7500    0.0000    0.7500   2.0975E-01  168.87   0.0000E+00    0.00   1.0589E-01  -80.82
   -0.4500    0.0000    0.7500   4.7775E-01  170.02   0.0000E+00    0.00   1.5760E-01  -51.25
   -0.1500    0.0000    0.7500   1.9700E+00  169.99   0.0000E+00    0.00   2.4195E-01  -29.88
    0.1500    0.0000    0.7500   1.9700E+00  -10.01   0.0000E+00    0.00   2.4195E-01  -29.88
    0.4500    0.0000    0.7500   4.7775E-01   -9.98   0.0000E+00    0.00   1.5760E-01  -51.25
    0.7500    0.0000    0.7500   2.0975E-01  -11.13   0.0000E+00    0.00   1.0589E-01  -80.82
    1.0500    0.0000    0.7500   1.1440E-01  -13.84   0.0000E+00    0.00   8.8995E-02 -104.87
    1.3500    0.0000    0.7500   7.0798E-02  -18.29   0.0000E+00    0.00   8.0242E-02 -123.73
   -1.3500    0.0000    1.0500   7.5472E-02  159.23   0.0000E+00    0.00   7.0840E-02 -115.05
   -1.0500    0.0000    1.0500   1.1143E-01  164.18   0.0000E+00    0.00   8.4458E-02  -89.16
   -0.7500    0.0000    1.0500   1.7945E-01  167.38   0.0000E+00    0.00   1.2369E-01  -59.61
   -0.4500    0.0000    1.0500   3.3849E-01  168.88   0.0000E+00    0.00   2.5570E-01  -33.37
   -0.1500    0.0000    1.0500   1.0201E+00  168.79   0.0000E+00    0.00   1.0666E+00  -16.22
    0.1500    0.0000    1.0500   1.0201E+00  -11.21   0.0000E+00    0.00   1.0666E+00  -16.22
    0.4500    0.0000    1.0500   3.3849E-01  -11.12   0.0000E+00    0.00   2.5570E-01  -33.37
    0.7500    0.0000    1.0500   1.7945E-01  -12.62   0.0000E+00    0.00   1.2369E-01  -59.61
    1.0500    0.0000    1.0500   1.1143E-01  -15.82   0.0000E+00    0.00   8.4458E-02  -89.16
    1.3500    0.0000    1.0500   7.5472E-02  -20.77   0.0000E+00    0.00   7.0840E-02 -115.05
   -1.3500    0.0000    1.3500   6.9505E-02  155.49   0.0000E+00    0.00   6.3078E-02 -109.41
   -1.0500    0.0000    1.3500   9.1405E-02  161.01   0.0000E+00    0.00   7.9855E-02  -82.30
   -0.7500    0.0000    1.3500   1.2141E-01  164.91   0.0000E+00    0.00   1.2073E-01  -56.25
   -0.4500    0.0000    1.3500   1.5257E-01  167.23   0.0000E+00    0.00   2.1575E-01  -36.25
   -0.1500    0.0000    1.3500   1.0736E-01  168.16   0.0000E+00    0.00   3.9494E-01  -24.92
    0.1500    0.0000    1.3500   1.0736E-01  -11.84   0.0000E+00    0.00   3.9494E-01  -24.92
    0.4500    0.0000    1.3500   1.5257E-01  -12.77   0.0000E+00    0.00   2.1575E-01  -36.25
    0.7500    0.0000    1.3500   1.2141E-01  -15.09   0.0000E+00    0.00   1.2073E-01  -56.25
    1.0500    0.0000    1.3500   9.1405E-02  -18.99   0.0000E+00    0.00   7.9855E-02  -82.30
    1.3500    0.0000    1.3500   6.9505E-02  -24.51   0.0000E+00    0.00   6.3078E-02 -109.41


                             ---------- RADIATION PATTERNS -----------

 ---- ANGLES -----     ----- POWER GAINS -----       ---- POLARIZATION ----   ---- E(THETA) ----    ----- E(PHI) ------
  THETA      PHI       VERTC    HORIZ    TOTAL       AXIAL      TILT  SENSE   MAGNITUDE    PHASE    MAGNITUDE     PHASE
 DEGREES   DEGREES        DB       DB       DB       RATIO   DEGREES            VOLTS/M   DEGREES     VOLTS/M   DEGREES
    0.00      0.00   -999.99  -999.99  -999.99      0.0000      0.00         0.0000E+00      0.00  0.0000E+00      0.00
   10.00      0.00    -14.18  -999.99   -14.18      0.0000     -0.00 LINEAR  2.8185E-02    170.49  0.0000E+00      0.00
   20.00      0.00     -8.21  -999.99    -8.21      0.0000     -0.00 LINEAR  5.6040E-02    170.48  0.0000E+00      0.00
   30.00      0.00     -4.78  -999.99    -4.78      0.0000     -0.00 LINEAR  8.3114E-02    170.46  0.0000E+00      0.00
   40.00      0.00     -2.45  -999.99    -2.45      0.0000     -0.00 LINEAR  1.0875E-01    170.44  0.0000E+00      0.00
   50.00      0.00     -0.76  -999.99    -0.76      0.0000     -0.00 LINEAR  1.3204E-01    170.42  0.0000E+00      0.00
   60.00      0.00      0.46  -999.99     0.46      0.0000     -0.00 LINEAR  1.5190E-01    170.41  0.0000E+00      0.00
   70.00      0.00      1.29  -999.99     1.29      0.0000     -0.00 LINEAR  1.6717E-01    170.39  0.0000E+00      0.00
   80.00      0.00      1.78  -999.99     1.78      0.0000     -0.00 LINEAR  1.7682E-01    170.38  0.0000E+00      0.00
   90.00      0.00      1.94  -999.99     1.94      0.0000     -0.00 LINEAR  1.8013E-01    170.38  0.0000E+00      0.00
  100.00      0.00      1.78  -999.99     1.78      0.0000     -0.00 LINEAR  1.7682E-01    170.38  0.0000E+00      0.00
  110.00      0.00      1.29  -999.99     1.29      0.0000     -0.00 LINEAR  1.6717E-01    170.39  0.0000E+00      0.00
  120.00      0.00      0.46  -999.99     0.46      0.0000     -0.00 LINEAR  1.5190E-01    170.41  0.0000E+00      0.00
  130.00      0.00     -0.76  -999.99    -0.76      0.0000     -0.00 LINEAR  1.3204E-01    170.42  0.0000E+00      0.00
  140.00      0.00     -2.45  -999.99    -2.45      0.0000     -0.00 LINEAR  1.0875E-01    170.44  0.0000E+00      0.00
  150.00      0.00     -4.78  -999.99    -4.78      0.0000     -0.00 LINEAR  8.3114E-02    170.46  0.0000E+00      0.00
  160.00      0.00     -8.21  -999.99    -8.21      0.0000     -0.00 LINEAR  5.6040E-02    170.48  0.0000E+00      0.00
  170.00      0.00    -14.18  -999.99   -14.18      0.0000     -0.00 LINEAR  2.8185E-02    170.49  0.0000E+00      0.00
  180.00      0.00   -999.99  -999.99  -999.99      0.0000      0.00         1.6513E-12     -9.51  0.0000E+00      0.00
    0.00     10.00   -999.99  -999.99  -999.99      0.0000      0.00         0.0000E+00      0.00  0.0000E+00      0.00
   10.00     10.00    -14.18  -999.99   -14.18      0.0000     -0.00 LINEAR  2.8185E-02    170.49  0.0000E+00      0.00
   20.00     10.00     -8.21  -999.99    -8.21      0.0000     -0.00 LINEAR  5.6040E-02    170.48  0.0000E+00      0.00
   30.00     10.00     -4.78  -999.99    -4.78      0.0000     -0.00 LINEAR  8.3114E-02    170.46  0.0000E+00      0.00
   40.00     10.00     -2.45  -999.99    -2.45      0.0000     -0.00 LINEAR  1.0875E-01    170.44  0.0000E+00      0.00
   50.00     10.00     -0.76  -999.99    -0.76      0.0000     -0.00 LINEAR  1.3204E-01    170.42  0.0000E+00      0.00
   60.00     10.00      0.46  -999.99     0.46      0.0000     -0.00 LINEAR  1.5190E-01    170.41  0.0000E+00      0.00
   70.00     10.00      1.29  -999.99     1.29      0.0000     -0.00 LINEAR  1.6717E-01    170.39  0.0000E+00      0.00
   80.00     10.00      1.78  -999.99     1.78      0.0000     -0.00 LINEAR  1.7682E-01    170.38  0.0000E+00      0.00
   90.00     10.00      1.94  -999.99     1.94      0.0000     -0.00 LINEAR  1.8013E-01    170.38  0.0000E+00      0.00
  100.00     10.00      1.78  -999.99     1.78      0.0000     -0.00 LINEAR  1.7682E-01    170.38  0.0000E+00      0.00
  110.00     10.00      1.29  -999.99     1.29      0.0000     -0.00 LINEAR  1.6717E-01    170.39  0.0000E+00      0.00
  120.00     10.00      0.46  -999.99     0.46      0.0000     -0.00 LINEAR  1.5190E-01    170.41  0.0000E+00      0.00
  130.00     10.00     -0.76  -999.99    -0.76      0.0000     -0.00 LINEAR  1.3204E-01    170.42  0.0000E+00      0.00
  140.00     10.00     -2.45  -999.99    -2.45      0.0000     -0.00 LINEAR  1.0875E-01    170.44  0.0000E+00      0.00
  150.00     10.00     -4.78  -999.99    -4.78      0.0000     -0.00 LINEAR  8.3114E-02    170.46  0.0000E+00      0.00
  160.00     10.00     -8.21  -999.99    -8.21      0.0000     -0.00 LINEAR  5.6040E-02    170.48  0.0000E+00      0.00
  170.00     10.00    -14.18  -999.99   -14.18      0.0000     -0.00 LINEAR  2.8185E-02    170.49  0.0000E+00      0.00
  180.00     10.00   -999.99  -999.99  -999.99      0.0000      0.00         1.6513E-12     -9.51  0.0000E+00      0.00
    0.00     20.00   -999.99  -999.99  -999.99      0.0000      0.00         0.0000E+00      0.00  0.0000E+00      0.00
   10.00     20.00    -14.18  -999.99   -14.18      0.0000     -0.00 LINEAR  2.8185E-02    170.49  0.0000E+00      0.00
   20.00     20.00     -8.21  -999.99    -8.21      0.0000     -0.00 LINEAR  5.6040E-02    170.48  0.0000E+00      0.00
   30.00     20.00     -4.78  -999.99    -4.78      0.0000     -0.00 LINEAR  8.3114E-02    170.46  0.0000E+00      0.00
   40.00     20.00     -2.45  -999.99    -2.45      0.0000     -0.00 LINEAR  1.0875E-01    170.44  0.0000E+00      0.00
   50.00     20.00     -0.76  -999.99    -0.76      0.0000     -0.00 LINEAR  1.3204E-01    170.42  0.0000E+00      0.00
   60.00     20.00      0.46  -999.99     0.46      0.0000     -0.00 LINEAR  1.5190E-01    170.41  0.0000E+00      0.00
   70.00     20.00      1.29  -999.99     1.29      0.0000     -0.00 LINEAR  1.6717E-01    170.39  0.0000E+00      0.00
   80.00     20.00      1.78  -999.99     1.78      0.0000     -0.00 LINEAR  1.7682E-01    170.38  0.0000E+00      0.00
   90.00     20.00      1.94  -999.99     1.94      0.0000     -0.00 LINEAR  1.8013E-01    170.38  0.0000E+00      0.00
  100.00     20.00      1.78  -999.99     1.78      0.0000     -0.00 LINEAR  1.7682E-01    170.38  0.0000E+00      0.00
  110.00     20.00      1.29  -999.99     1.29      0.0000     -0.00 LINEAR  1.6717E-01    170.39  0.0000E+00      0.00
  120.00     20.00      0.46  -999.99     0.46      0.0000     -0.00 LINEAR  1.5190E-01    170.41  0.0000E+00      0.00
  130.00     20.00     -0.76  -999.99    -0.76      0.0000     -0.00 LINEAR  1.3204E-01    170.42  0.0000E+00      0.00
  140.00     20.00     -2.45  -999.99    -2.45      0.0000     -0.00 LINEAR  1.0875E-01    170.44  0.0000E+00      0.00
  150.00     20.00     -4.78  -999.99    -4.78      0.0000     -0.00 LINEAR  8.3114E-02    170.46  0.0000E+00      0.00
  160.00     20.00     -8.21  -999.99    -8.21      0.0000     -0.00 LINEAR  5.6040E-02    170.48  0.0000E+00      0.00
  170.00     20.00    -14.18  -999.99   -14.18      0.0000     -0.00 LINEAR  2.8185E-02    170.49  0.0000E+00      0.00
  180.00     20.00   -999.99  -999.99  -999.99      0.0000      0.00         1.6513E-12     -9.51  0.0000E+00      0.00
    0.00     30.00   -999.99  -999.99  -999.99      0.0000      0.00         0.0000E+00      0.00  0.0000E+00      0.00
   10.00     30.00    -14.18  -999.99   -14.18      0.0000     -0.00 LINEAR  2.8185E-02    170.49  0.0000E+00      0.00
   20.00     30.00     -8.21  -999.99    -8.21      0.0000     -0.00 LINEAR  5.6040E-02    170.48  0.0000E+00      0.00
   30.00     30.00     -4.78  -999.99    -4.78      0.0000     -0.00 LINEAR  8.3114E-02    170.46  0.0000E+00      0.00
   40.00     30.00     -2.45  -999.99    -2.45      0.0000     -0.00 LINEAR  1.0875E-01    170.44  0.0000E+00      0.00
   50.00     30.00     -0.76  -999.99    -0.76      0.0000     -0.00 LINEAR  1.3204E-01    170.42  0.0000E+00      0.00
   60.00     30.00      0.46  -999.99     0.46      0.0000     -0.00 LINEAR  1.5190E-01    170.41  0.0000E+00      0.00
   70.00     30.00      1.29  -999.99     1.29      0.0000     -0.00 LINEAR  1.6717E-01    170.39  0.0000E+00      0.00
   80.00     30.00      1.78  -999.99     1.78      0.0000     -0.00 LINEAR  1.7682E-01    170.38  0.0000E+00      0.00
   90.00     30.00      1.94  -999.99     1.94      0.0000     -0.00 LINEAR  1.8013E-01    170.38  0.0000E+00      0.00
  100.00     30.00      1.78  -999.99     1.78      0.0000     -0.00 LINEAR  1.7682E-01    170.38  0.0000E+00      0.00
  110.00     30.00      1.29  -999.99     1.29      0.0000     -0.00 LINEAR  1.6717E-01    170.39  0.0000E+00      0.00
  120.00     30.00      0.46  -999.99     0.46      0.0000     -0.00 LINEAR  1.5190E-01    170.41  0.0000E+00      0.00
  130.00     30.00     -0.76  -999.99    -0.76      0.0000     -0.00 LINEAR  1.3204E-01    170.42  0.0000E+00      0.00
  140.00     30.00     -2.45  -999.99    -2.45      0.0000     -0.00 LINEAR  1.0875E-01    170.44  0.0000E+00      0.00
  150.00     30.00     -4.78  -999.99    -4.78      0.0000     -0.00 LINEAR  8.3114E-02    170.46  0.0000E+00      0.00
  160.00     30.00     -8.21  -999.99    -8.21      0.0000     -0.00 LINEAR  5.6040E-02    170.48  0.0000E+00      0.00
  170.00     30.00    -14.18  -999.99   -14.18      0.0000     -0.00 LINEAR  2.8185E-02    170.49  0.0000E+00      0.00
  180.00     30.00   -999.99  -999.99  -999.99      0.0000      0.00         1.6513E-12     -9.51  0.0000E+00      0.00
    0.00     40.00   -999.99  -999.99  -999.99      0.0000      0.00         0.0000E+00      0.00  0.0000E+00      0.00
   10.00     40.00    -14.18  -999.99   -14.18      0.0000     -0.00 LINEAR  2.8185E-02    170.49  0.0000E+00      0.00
   20.00     40.00     -8.21  -999.99    -8.21      0.0000     -0.00 LINEAR  5.6040E-02    170.48  0.0000E+00      0.00
   30.00     40.00     -4.78  -999.99    -4.78      0.0000     -0.00 LINEAR  8.3114E-02    170.46  0.0000E+00      0.00
   40.00     40.00     -2.45  -999.99    -2.45      0.0000     -0.00 LINEAR  1.0875E-01    170.44  0.0000E+00      0.00
   50.00     40.00     -0.76  -999.99    -0.76      0.0000     -0.00 LINEAR  1.3204E-01    170.42  0.0000E+00      0.00
   60.00     40.00      0.46  -999.99     0.46      0.0000     -0.00 LINEAR  1.5190E-01    170.41  0.0000E+00      0.00
   70.00     40.00      1.29  -999.99     1.29      0.0000     -0.00 LINEAR  1.6717E-01    170.39  0.0000E+00      0.00
   80.00     40.00      1.78  -999.99     1.78      0.0000     -0.00 LINEAR  1.7682E-01    170.38  0.0000E+00      0.00
   90.00     40.00      1.94  -999.99     1.94      0.0000     -0.00 LINEAR  1.8013E-01    170.38  0.0000E+00      0.00
  100.00     40.00      1.78  -999.99     1.78      0.0000     -0.00 LINEAR  1.7682E-01    170.38  0.0000E+00      0.00
  110.00     40.00      1.29  -999.99     1.29      0.0000     -0.00 LINEAR  1.6717E-01    170.39  0.0000E+00      0.00
  120.00     40.00      0.46  -999.99     0.46      0.0000     -0.00 LINEAR  1.5190E-01    170.41  0.0000E+00      0.00
  130.00     40.00     -0.76  -999.99    -0.76      0.0000     -0.00 LINEAR  1.3204E-01    170.42  0.0000E+00      0.00
  140.00     40.00     -2.45  -999.99    -2.45      0.0000     -0.00 LINEAR  1.0875E-01    170.44  0.0000E+00      0.00
  150.00     40.00     -4.78  -999.99    -4.78      0.0000     -0.00 LINEAR  8.3114E-02    170.46  0.0000E+00      0.00
  160.00     40.00     -8.21  -999.99    -8.21      0.0000     -0.00 LINEAR  5.6040E-02    170.48  0.0000E+00      0.00
  170.00     40.00    -14.18  -999.99   -14.18      0.0000     -0.00 LINEAR  2.8185E-02    170.49  0.0000E+00      0.00
  180.00     40.00   -999.99  -999.99  -999.99      0.0000      0.00         1.6513E-12     -9.51  0.0000E+00      0.00
    0.00     50.00   -999.99  -999.99  -999.99      0.0000      0.00         0.0000E+00      0.00  0.0000E+00      0.00
   10.00     50.00    -14.18  -999.99   -14.18      0.0000     -0.00 LINEAR  2.8185E-02    170.49  0.0000E+00      0.00
   20.00     50.00     -8.21  -999.99    -8.21      0.0000     -0.00 LINEAR  5.6040E-02    170.48  0.0000E+00      0.00
   30.00     50.00     -4.78  -999.99    -4.78      0.0000     -0.00 LINEAR  8.3114E-02    170.46  0.0000E+00      0.00
   40.00     50.00     -2.45  -999.99    -2.45      0.0000     -0.00 LINEAR  1.0875E-01    170.44  0.0000E+00      0.00
   50.00     50.00     -0.76  -999.99    -0.76      0.0000     -0.00 LINEAR  1.3204E-01    170.42  0.0000E+00      0.00
   60.00     50.00      0.46  -999.99     0.46      0.0000     -0.00 LINEAR  1.5190E-01    170.41  0.0000E+00      0.00
   70.00     50.00      1.29  -999.99     1.29      0.0000     -0.00 LINEAR  1.6717E-01    170.39  0.0000E+00      0.00
   80.00     50.00      1.78  -999.99     1.78      0.0000     -0.00 LINEAR  1.7682E-01    170.38  0.0000E+00      0.00
   90.00     50.00      1.94  -999.99     1.94      0.0000     -0.00 LINEAR  1.8013E-01    170.38  0.0000E+00      0.00
  100.00     50.00      1.78  -999.99     1.78      0.0000     -0.00 LINEAR  1.7682E-01    170.38  0.0000E+00      0.00
  110.00     50.00      1.29  -999.99     1.29      0.0000     -0.00 LINEAR  1.6717E-01    170.39  0.0000E+00      0.00
  120.00     50.00      0.46  -999.99     0.46      0.0000     -0.00 LINEAR  1.5190E-01    170.41  0.0000E+00      0.00
  130.00     50.00     -0.76  -999.99    -0.76      0.0000     -0.00 LINEAR  1.3204E-01    170.42  0.0000E+00      0.00
  140.00     50.00     -2.45  -999.99    -2.45      0.0000     -0.00 LINEAR  1.0875E-01    170.44  0.0000E+00      0.00
  150.00     50.00     -4.78  -999.99    -4.78      0.0000     -0.00 LINEAR  8.3114E-02    170.46  0.0000E+00      0.00
  160.00     50.00     -8.21  -999.99    -8.21      0.0000     -0.00 LINEAR  5.6040E-02    170.48  0.0000E+00      0.00
  170.00     50.00    -14.18  -999.99   -14.18      0.0000     -0.00 LINEAR  2.8185E-02    170.49  0.0000E+00      0.00
  180.00     50.00   -999.99  -999.99  -999.99      0.0000      0.00         1.6513E-12     -9.51  0.0000E+00      0.00
    0.00     60.00   -999.99  -999.99  -999.99      0.0000      0.00         0.0000E+00      0.00  0.0000E+00      0.00
   10.00     60.00    -14.18  -999.99   -14.18      0.0000     -0.00 LINEAR  2.8185E-02    170.49  0.0000E+00      0.00
   20.00     60.00     -8.21  -999.99    -8.21      0.0000     -0.00 LINEAR  5.6040E-02    170.48  0.0000E+00      0.00
   30.00     60.00     -4.78  -999.99    -4.78      0.0000     -0.00 LINEAR  8.3114E-02    170.46  0.0000E+00      0.00
   40.00     60.00     -2.45  -999.99    -2.45      0.0000     -0.00 LINEAR  1.0875E-01    170.44  0.0000E+00      0.00
   50.00     60.00     -0.76  -999.99    -0.76      0.0000     -0.00 LINEAR  1.3204E-01    170.42  0.0000E+00      0.00
   60.00     60.00      0.46  -999.99     0.46      0.0000     -0.00 LINEAR  1.5190E-01    170.41  0.0000E+00      0.00
   70.00     60.00      1.29  -999.99     1.29      0.0000     -0.00 LINEAR  1.6717E-01    170.39  0.0000E+00      0.00
   80.00     60.00      1.78  -999.99     1.78      0.0000     -0.00 LINEAR  1.7682E-01    170.38  0.0000E+00      0.00
   90.00     60.00      1.94  -999.99     1.94      0.0000     -0.00 LINEAR  1.8013E-01    170.38  0.0000E+00      0.00
  100.00     60.00      1.78  -999.99     1.78      0.0000     -0.00 LINEAR  1.7682E-01    170.38  0.0000E+00      0.00
  110.00     60.00      1.29  -999.99     1.29      0.0000     -0.00 LINEAR  1.6717E-01    170.39  0.0000E+00      0.00
  120.00     60.00      0.46  -999.99     0.46      0.0000     -0.00 LINEAR  1.5190E-01    170.41  0.0000E+00      0.00
  130.00     60.00     -0.76  -999.99    -0.76      0.0000     -0.00 LINEAR  1.3204E-01    170.42  0.0000E+00      0.00
  140.00     60.00     -2.45  -999.99    -2.45      0.0000     -0.00 LINEAR  1.0875E-01    170.44  0.0000E+00      0.00
  150.00     60.00     -4.78  -999.99    -4.78      0.0000     -0.00 LINEAR  8.3114E-02    170.46  0.0000E+00      0.00
  160.00     60.00     -8.21  -999.99    -8.21      0.0000     -0.00 LINEAR  5.6040E-02    170.48  0.0000E+00      0.00
  170.00     60.00    -14.18  -999.99   -14.18      0.0000     -0.00 LINEAR  2.8185E-02    170.49  0.0000E+00      0.00
  180.00     60.00   -999.99  -999.99  -999.99      0.0000      0.00         1.6513E-12     -9.51  0.0000E+00      0.00
    0.00     70.00   -999.99  -999.99  -999.99      0.0000      0.00         0.0000E+00      0.00  0.0000E+00      0.00
   10.00     70.00    -14.18  -999.99   -14.18      0.0000     -0.00 LINEAR  2.8185E-02    170.49  0.0000E+00      0.00
   20.00     70.00     -8.21  -999.99    -8.21      0.0000     -0.00 LINEAR  5.6040E-02    170.48  0.0000E+00      0.00
   30.00     70.00     -4.78  -999.99    -4.78      0.0000     -0.00 LINEAR  8.3114E-02    170.46  0.0000E+00      0.00
   40.00     70.00     -2.45  -999.99    -2.45      0.0000     -0.00 LINEAR  1.0875E-01    170.44  0.0000E+00      0.00
   50.00     70.00     -0.76  -999.99    -0.76      0.0000     -0.00 LINEAR  1.3204E-01    170.42  0.0000E+00      0.00
   60.00     70.00      0.46  -999.99     0.46      0.0000     -0.00 LINEAR  1.5190E-01    170.41  0.0000E+00      0.00
   70.00     70.00      1.29  -999.99     1.29      0.0000     -0.00 LINEAR  1.6717E-01    170.39  0.0000E+00      0.00
   80.00     70.00      1.78  -999.99     1.78      0.0000     -0.00 LINEAR  1.7682E-01    170.38  0.0000E+00      0.00
   90.00     70.00      1.94  -999.99     1.94      0.0000     -0.00 LINEAR  1.8013E-01    170.38  0.0000E+00      0.00
  100.00     70.00      1.78  -999.99     1.78      0.0000     -0.00 LINEAR  1.7682E-01    170.38  0.0000E+00      0.00
  110.00     70.00      1.29  -999.99     1.29      0.0000     -0.00 LINEAR  1.6717E-01    170.39  0.0000E+00      0.00
  120.00     70.00      0.46  -999.99     0.46      0.0000     -0.00 LINEAR  1.5190E-01    170.41  0.0000E+00      0.00
  130.00     70.00     -0.76  -999.99    -0.76      0.0000     -0.00 LINEAR  1.3204E-01    170.42  0.0000E+00      0.00
  140.00     70.00     -2.45  -999.99    -2.45      0.0000     -0.00 LINEAR  1.0875E-01    170.44  0.0000E+00      0.00
  150.00     70.00     -4.78  -999.99    -4.78      0.0000     -0.00 LINEAR  8.3114E-02    170.46  0.0000E+00      0.00
  160.00     70.00     -8.21  -999.99    -8.21      0.0000     -0.00 LINEAR  5.6040E-02    170.48  0.0000E+00      0.00
  170.00     70.00    -14.18  -999.99   -14.18      0.0000     -0.00 LINEAR  2.8185E-02    170.49  0.0000E+00      0.00
  180.00     70.00   -999.99  -999.99  -999.99      0.0000      0.00         1.6513E-12     -9.51  0.0000E+00      0.00
    0.00     80.00   -999.99  -999.99  -999.99      0.0000      0.00         0.0000E+00      0.00  0.0000E+00      0.00
   10.00     80.00    -14.18  -999.99   -14.18      0.0000     -0.00 LINEAR  2.8185E-02    170.49  0.0000E+00      0.00
   20.00     80.00     -8.21  -999.99    -8.21      0.0000     -0.00 LINEAR  5.6040E-02    170.48  0.0000E+00      0.00
   30.00     80.00     -4.78  -999.99    -4.78      0.0000     -0.00 LINEAR  8.3114E-02    170.46  0.0000E+00      0.00
   40.00     80.00     -2.45  -999.99    -2.45      0.0000     -0.00 LINEAR  1.0875E-01    170.44  0.0000E+00      0.00
   50.00     80.00     -0.76  -999.99    -0.76      0.0000     -0.00 LINEAR  1.3204E-01    170.42  0.0000E+00      0.00
   60.00     80.00      0.46  -999.99     0.46      0.0000     -0.00 LINEAR  1.5190E-01    170.41  0.0000E+00      0.00
   70.00     80.00      1.29  -999.99     1.29      0.0000     -0.00 LINEAR  1.6717E-01    170.39  0.0000E+00      0.00
   80.00     80.00      1.78  -999.99     1.78      0.0000     -0.00 LINEAR  1.7682E-01    170.38  0.0000E+00      0.00
   90.00     80.00      1.94  -999.99     1.94      0.0000     -0.00 LINEAR  1.8013E-01    170.38  0.0000E+00      0.00
  100.00     80.00      1.78  -999.99     1.78      0.0000     -0.00 LINEAR  1.7682E-01    170.38  0.0000E+00      0.00
  110.00     80.00      1.29  -999.99     1.29      0.0000     -0.00 LINEAR  1.6717E-01    170.39  0.0000E+00      0.00
  120.00     80.00      0.46  -999.99     0.46      0.0000     -0.00 LINEAR  1.5190E-01    170.41  0.0000E+00      0.00
  130.00     80.00     -0.76  -999.99    -0.76      0.0000     -0.00 LINEAR  1.3204E-01    170.42  0.0000E+00      0.00
  140.00     80.00     -2.45  -999.99    -2.45      0.0000     -0.00 LINEAR  1.0875E-01    170.44  0.0000E+00      0.00
  150.00     80.00     -4.78  -999.99    -4.78      0.0000     -0.00 LINEAR  8.3114E-02    170.46  0.0000E+00      0.00
  160.00     80.00     -8.21  -999.99    -8.21      0.0000     -0.00 LINEAR  5.6040E-02    170.48  0.0000E+00      0.00
  170.00     80.00    -14.18  -999.99   -14.18      0.0000     -0.00 LINEAR  2.8185E-02    170.49  0.0000E+00      0.00
  180.00     80.00   -999.99  -999.99  -999.99      0.0000      0.00         1.6513E-12     -9.51  0.0000E+00      0.00
    0.00     90.00   -999.99  -999.99  -999.99      0.0000      0.00         0.0000E+00      0.00  0.0000E+00    180.00
   10.00     90.00    -14.18  -999.99   -14.18      0.0000      0.00 LINEAR  2.8185E-02    170.49  0.0000E+00    180.00
   20.00     90.00     -8.21  -999.99    -8.21      0.0000      0.00 LINEAR  5.6040E-02    170.48  0.0000E+00    180.00
   30.00     90.00     -4.78  -999.99    -4.78      0.0000      0.00 LINEAR  8.3114E-02    170.46  0.0000E+00    180.00
   40.00     90.00     -2.45  -999.99    -2.45      0.0000      0.00 LINEAR  1.0875E-01    170.44  0.0000E+00    180.00
   50.00     90.00     -0.76  -999.99    -0.76      0.0000      0.00 LINEAR  1.3204E-01    170.42  0.0000E+00    180.00
   60.00     90.00      0.46  -999.99     0.46      0.0000      0.00 LINEAR  1.5190E-01    170.41  0.0000E+00    180.00
   70.00     90.00      1.29  -999.99     1.29      0.0000      0.00 LINEAR  1.6717E-01    170.39  0.0000E+00    180.00
   80.00     90.00      1.78  -999.99     1.78      0.0000      0.00 LINEAR  1.7682E-01    170.38  0.0000E+00    180.00
   90.00     90.00      1.94  -999.99     1.94      0.0000      0.00 LINEAR  1.8013E-01    170.38  0.0000E+00    180.00
  100.00     90.00      1.78  -999.99     1.78      0.0000      0.00 LINEAR  1.7682E-01    170.38  0.0000E+00    180.00
  110.00     90.00      1.29  -999.99     1.29      0.0000      0.00 LINEAR  1.6717E-01    170.39  0.0000E+00    180.00
  120.00     90.00      0.46  -999.99     0.46      0.0000      0.00 LINEAR  1.5190E-01    170.41  0.0000E+00    180.00
  130.00     90.00     -0.76  -999.99    -0.76      0.0000      0.00 LINEAR  1.3204E-01    170.42  0.0000E+00    180.00
  140.00     90.00     -2.45  -999.99    -2.45      0.0000      0.00 LINEAR  1.0875E-01    170.44  0.0000E+00    180.00
  150.00     90.00     -4.78  -999.99    -4.78      0.0000      0.00 LINEAR  8.3114E-02    170.46  0.0000E+00    180.00
  160.00     90.00     -8.21  -999.99    -8.21      0.0000      0.00 LINEAR  5.6040E-02    170.48  0.0000E+00    180.00
  170.00     90.00    -14.18  -999.99   -14.18      0.0000      0.00 LINEAR  2.8185E-02    170.49  0.0000E+00    180.00
  180.00     90.00   -999.99  -999.99  -999.99      0.0000      0.00         1.6513E-12     -9.51  0.0000E+00    180.00
    0.00    100.00   -999.99  -999.99  -999.99      0.0000      0.00         0.0000E+00      0.00  0.0000E+00    180.00
   10.00    100.00    -14.18  -999.99   -14.18      0.0000      0.00 LINEAR  2.8185E-02    170.49  0.0000E+00    180.00
   20.00    100.00     -8.21  -999.99    -8.21      0.0000      0.00 LINEAR  5.6040E-02    170.48  0.0000E+00    180.00
   30.00    100.00     -4.78  -999.99    -4.78      0.0000      0.00 LINEAR  8.3114E-02    170.46  0.0000E+00    180.00
   40.00    100.00     -2.45  -999.99    -2.45      0.0000      0.00 LINEAR  1.0875E-01    170.44  0.0000E+00    180.00
   50.00    100.00     -0.76  -999.99    -0.76      0.0000      0.00 LINEAR  1.3204E-01    170.42  0.0000E+00    180.00
   60.00    100.00      0.46  -999.99     0.46      0.0000      0.00 LINEAR  1.5190E-01    170.41  0.0000E+00    180.00
   70.00    100.00      1.29  -999.99     1.29      0.0000      0.00 LINEAR  1.6717E-01    170.39  0.0000E+00    180.00
   80.00    100.00      1.78  -999.99     1.78      0.0000      0.00 LINEAR  1.7682E-01    170.38  0.0000E+00    180.00
   90.00    100.00      1.94  -999.99     1.94      0.0000      0.00 LINEAR  1.8013E-01    170.38  0.0000E+00    180.00
  100.00    100.00      1.78  -999.99     1.78      0.0000      0.00 LINEAR  1.7682E-01    170.38  0.0000E+00    180.00
  110.00    100.00      1.29  -999.99     1.29      0.0000      0.00 LINEAR  1.6717E-01    170.39  0.0000E+00    180.00
  120.00    100.00      0.46  -999.99     0.46      0.0000      0.00 LINEAR  1.5190E-01    170.41  0.0000E+00    180.00
  130.00    100.00     -0.76  -999.99    -0.76      0.0000      0.00 LINEAR  1.3204E-01    170.42  0.0000E+00    180.00
  140.00    100.00     -2.45  -999.99    -2.45      0.0000      0.00 LINEAR  1.0875E-01    170.44  0.0000E+00    180.00
  150.00    100.00     -4.78  -999.99    -4.78      0.0000      0.00 LINEAR  8.3114E-02    170.46  0.0000E+00    180.00
  160.00    100.00     -8.21  -999.99    -8.21      0.0000      0.00 LINEAR  5.6040E-02    170.48  0.0000E+00    180.00
  170.00    100.00    -14.18  -999.99   -14.18      0.0000      0.00 LINEAR  2.8185E-02    170.49  0.0000E+00    180.00
  180.00    100.00   -999.99  -999.99  -999.99      0.0000      0.00         1.6513E-12     -9.51  0.0000E+00    180.00
    0.00    110.00   -999.99  -999.99  -999.99      0.0000      0.00         0.0000E+00      0.00  0.0000E+00    180.00
   10.00    110.00    -14.18  -999.99   -14.18      0.0000      0.00 LINEAR  2.8185E-02    170.49  0.0000E+00    180.00
   20.00    110.00     -8.21  -999.99    -8.21      0.0000      0.00 LINEAR  5.6040E-02    170.48  0.0000E+00    180.00
   30.00    110.00     -4.78  -999.99    -4.78      0.0000      0.00 LINEAR  8.3114E-02    170.46  0.0000E+00    180.00
   40.00    110.00     -2.45  -999.99    -2.45      0.0000      0.00 LINEAR  1.0875E-01    170.44  0.0000E+00    180.00
   50.00    110.00     -0.76  -999.99    -0.76      0.0000      0.00 LINEAR  1.3204E-01    170.42  0.0000E+00    180.00
   60.00    110.00      0.46  -999.99     0.46      0.0000      0.00 LINEAR  1.5190E-01    170.41  0.0000E+00    180.00
   70.00    110.00      1.29  -999.99     1.29      0.0000      0.00 LINEAR  1.6717E-01    170.39  0.0000E+00    180.00
   80.00    110.00      1.78  -999.99     1.78      0.0000      0.00 LINEAR  1.7682E-01    170.38  0.0000E+00    180.00
   90.00    110.00      1.94  -999.99     1.94      0.0000      0.00 LINEAR  1.8013E-01    170.38  0.0000E+00    180.00
  100.00    110.00      1.78  -999.99     1.78      0.0000      0.00 LINEAR  1.7682E-01    170.38  0.0000E+00    180.00
  110.00    110.00      1.29  -999.99     1.29      0.0000      0.00 LINEAR  1.6717E-01    170.39  0.0000E+00    180.00
  120.00    110.00      0.46  -999.99     0.46      0.0000      0.00 LINEAR  1.5190E-01    170.41  0.0000E+00    180.00
  130.00    110.00     -0.76  -999.99    -0.76      0.0000      0.00 LINEAR  1.3204E-01    170.42  0.0000E+00    180.00
  140.00    110.00     -2.45  -999.99    -2.45      0.0000      0.00 LINEAR  1.0875E-01    170.44  0.0000E+00    180.00
  150.00    110.00     -4.78  -999.99    -4.78      0.0000      0.00 LINEAR  8.3114E-02    170.46  0.0000E+00    180.00
  160.00    110.00     -8.21  -999.99    -8.21      0.0000      0.00 LINEAR  5.6040E-02    170.48  0.0000E+00    180.00
  170.00    110.00    -14.18  -999.99   -14.18      0.0000      0.00 LINEAR  2.8185E-02    170.49  0.0000E+00    180.00
  180.00    110.00   -999.99  -999.99  -999.99      0.0000      0.00         1.6513E-12     -9.51  0.0000E+00    180.00
    0.00    120.00   -999.99  -999.99  -999.99      0.0000      0.00         0.0000E+00      0.00  0.0000E+00    180.00
   10.00    120.00    -14.18  -999.99   -14.18      0.0000      0.00 LINEAR  2.8185E-02    170.49  0.0000E+00    180.00
   20.00    120.00     -8.21  -999.99    -8.21      0.0000      0.00 LINEAR  5.6040E-02    170.48  0.0000E+00    180.00
   30.00    120.00     -4.78  -999.99    -4.78      0.0000      0.00 LINEAR  8.3114E-02    170.46  0.0000E+00    180.00
   40.00    120.00     -2.45  -999.99    -2.45      0.0000      0.00 LINEAR  1.0875E-01    170.44  0.0000E+00    180.00
   50.00    120.00     -0.76  -999.99    -0.76      0.0000      0.00 LINEAR  1.3204E-01    170.42  0.0000E+00    180.00
   60.00    120.00      0.46  -999.99     0.46      0.0000      0.00 LINEAR  1.5190E-01    170.41  0.0000E+00    180.00
   70.00    120.00      1.29  -999.99     1.29      0.0000      0.00 LINEAR  1.6717E-01    170.39  0.0000E+00    180.00
   80.00    120.00      1.78  -999.99     1.78      0.0000      0.00 LINEAR  1.7682E-01    170.38  0.0000E+00    180.00
   90.00    120.00      1.94  -999.99     1.94      0.0000      0.00 LINEAR  1.8013E-01    170.38  0.0000E+00    180.00
  100.00    120.00      1.78  -999.99     1.78      0.0000      0.00 LINEAR  1.7682E-01    170.38  0.0000E+00    180.00
  110.00    120.00      1.29  -999.99     1.29      0.0000      0.00 LINEAR  1.6717E-01    170.39  0.0000E+00    180.00
  120.00    120.00      0.46  -999.99     0.46      0.0000      0.00 LINEAR  1.5190E-01    170.41  0.0000E+00    180.00
  130.00    120.00     -0.76  -999.99    -0.76      0.0000      0.00 LINEAR  1.3204E-01    170.42  0.0000E+00    180.00
  140.00    120.00     -2.45  -999.99    -2.45      0.0000      0.00 LINEAR  1.0875E-01    170.44  0.0000E+00    180.00
  150.00    120.00     -4.78  -999.99    -4.78      0.0000      0.00 LINEAR  8.3114E-02    170.46  0.0000E+00    180.00
  160.00    120.00     -8.21  -999.99    -8.21      0.0000      0.00 LINEAR  5.6040E-02    170.48  0.0000E+00    180.00
  170.00    120.00    -14.18  -999.99   -14.18      0.0000      0.00 LINEAR  2.8185E-02    170.49  0.0000E+00    180.00
  180.00    120.00   -999.99  -999.99  -999.99      0.0000      0.00         1.6513E-12     -9.51  0.0000E+00    180.00
    0.00    130.00   -999.99  -999.99  -999.99      0.0000      0.00         0.0000E+00      0.00  0.0000E+00    180.00
   10.00    130.00    -14.18  -999.99   -14.18      0.0000      0.00 LINEAR  2.8185E-02    170.49  0.0000E+00    180.00
   20.00    130.00     -8.21  -999.99    -8.21      0.0000      0.00 LINEAR  5.6040E-02    170.48  0.0000E+00    180.00
   30.00    130.00     -4.78  -999.99    -4.78      0.0000      0.00 LINEAR  8.3114E-02    170.46  0.0000E+00    180.00
   40.00    130.00     -2.45  -999.99    -2.45      0.0000      0.00 LINEAR  1.0875E-01    170.44  0.0000E+00    180.00
   50.00    130.00     -0.76  -999.99    -0.76      0.0000      0.00 LINEAR  1.3204E-01    170.42  0.0000E+00    180.00
   60.00    130.00      0.46  -999.99     0.46      0.0000      0.00 LINEAR  1.5190E-01    170.41  0.0000E+00    180.00
   70.00    130.00      1.29  -999.99     1.29      0.0000      0.00 LINEAR  1.6717E-01    170.39  0.0000E+00    180.00
   80.00    130.00      1.78  -999.99     1.78      0.0000      0.00 LINEAR  1.7682E-01    170.38  0.0000E+00    180.00
   90.00    130.00      1.94  -999.99     1.94      0.0000      0.00 LINEAR  1.8013E-01    170.38  0.0000E+00    180.00
  100.00    130.00      1.78  -999.99     1.78      0.0000      0.00 LINEAR  1.7682E-01    170.38  0.0000E+00    180.00
  110.00    130.00      1.29  -999.99     1.29      0.0000      0.00 LINEAR  1.6717E-01    170.39  0.0000E+00    180.00
  120.00    130.00      0.46  -999.99     0.46      0.0000      0.00 LINEAR  1.5190E-01    170.41  0.0000E+00    180.00
  130.00    130.00     -0.76  -999.99    -0.76      0.0000      0.00 LINEAR  1.3204E-01    170.42  0.0000E+00    180.00
  140.00    130.00     -2.45  -999.99    -2.45      0.0000      0.00 LINEAR  1.0875E-01    170.44  0.0000E+00    180.00
  150.00    130.00     -4.78  -999.99    -4.78      0.0000      0.00 LINEAR  8.3114E-02    170.46  0.0000E+00    180.00
  160.00    130.00     -8.21  -999.99    -8.21      0.0000      0.00 LINEAR  5.6040E-02    170.48  0.0000E+00    180.00
  170.00    130.00    -14.18  -999.99   -14.18      0.0000      0.00 LINEAR  2.8185E-02    170.49  0.0000E+00    180.00
  180.00    130.00   -999.99  -999.99  -999.99      0.0000      0.00         1.6513E-12     -9.51  0.0000E+00    180.00
    0.00    140.00   -999.99  -999.99  -999.99      0.0000      0.00         0.0000E+00      0.00  0.0000E+00    180.00
   10.00    140.00    -14.18  -999.99   -14.18      0.0000      0.00 LINEAR  2.8185E-02    170.49  0.0000E+00    180.00
   20.00    140.00     -8.21  -999.99    -8.21      0.0000      0.00 LINEAR  5.6040E-02    170.48  0.0000E+00    180.00
   30.00    140.00     -4.78  -999.99    -4.78      0.0000      0.00 LINEAR  8.3114E-02    170.46  0.0000E+00    180.00
   40.00    140.00     -2.45  -999.99    -2.45      0.0000      0.00 LINEAR  1.0875E-01    170.44  0.0000E+00    180.00
   50.00    140.00     -0.76  -999.99    -0.76      0.0000      0.00 LINEAR  1.3204E-01    170.42  0.0000E+00    180.00
   60.00    140.00      0.46  -999.99     0.46      0.0000      0.00 LINEAR  1.5190E-01    170.41  0.0000E+00    180.00
   70.00    140.00      1.29  -999.99     1.29      0.0000      0.00 LINEAR  1.6717E-01    170.39  0.0000E+00    180.00
   80.00    140.00      1.78  -999.99     1.78      0.0000      0.00 LINEAR  1.7682E-01    170.38  0.0000E+00    180.00
   90.00    140.00      1.94  -999.99     1.94      0.0000      0.00 LINEAR  1.8013E-01    170.38  0.0000E+00    180.00
  100.00    140.00      1.78  -999.99     1.78      0.0000      0.00 LINEAR  1.7682E-01    170.38  0.0000E+00    180.00
  110.00    140.00      1.29  -999.99     1.29      0.0000      0.00 LINEAR  1.6717E-01    170.39  0.0000E+00    180.00
  120.00    140.00      0.46  -999.99     0.46      0.0000      0.00 LINEAR  1.5190E-01    170.41  0.0000E+00    180.00
  130.00    140.00     -0.76  -999.99    -0.76      0.0000      0.00 LINEAR  1.3204E-01    170.42  0.0000E+00    180.00
  140.00    140.00     -2.45  -999.99    -2.45      0.0000      0.00 LINEAR  1.0875E-01    170.44  0.0000E+00    180.00
  150.00    140.00     -4.78  -999.99    -4.78      0.0000      0.00 LINEAR  8.3114E-02    170.46  0.0000E+00    180.00
  160.00    140.00     -8.21  -999.99    -8.21      0.0000      0.00 LINEAR  5.6040E-02    170.48  0.0000E+00    180.00
  170.00    140.00    -14.18  -999.99   -14.18      0.0000      0.00 LINEAR  2.8185E-02    170.49  0.0000E+00    180.00
  180.00    140.00   -999.99  -999.99  -999.99      0.0000      0.00         1.6513E-12     -9.51  0.0000E+00    180.00
    0.00    150.00   -999.99  -999.99  -999.99      0.0000      0.00         0.0000E+00      0.00  0.0000E+00    180.00
   10.00    150.00    -14.18  -999.99   -14.18      0.0000      0.00 LINEAR  2.8185E-02    170.49  0.0000E+00    180.00
   20.00    150.00     -8.21  -999.99    -8.21      0.0000      0.00 LINEAR  5.6040E-02    170.48  0.0000E+00    180.00
   30.00    150.00     -4.78  -999.99    -4.78      0.0000      0.00 LINEAR  8.3114E-02    170.46  0.0000E+00    180.00
   40.00    150.00     -2.45  -999.99    -2.45      0.0000      0.00 LINEAR  1.0875E-01    170.44  0.0000E+00    180.00
   50.00    150.00     -0.76  -999.99    -0.76      0.0000      0.00 LINEAR  1.3204E-01    170.42  0.0000E+00    180.00
   60.00    150.00      0.46  -999.99     0.46      0.0000      0.00 LINEAR  1.5190E-01    170.41  0.0000E+00    180.00
   70.00    150.00      1.29  -999.99     1.29      0.0000      0.00 LINEAR  1.6717E-01    170.39  0.0000E+00    180.00
   80.00    150.00      1.78  -999.99     1.78      0.0000      0.00 LINEAR  1.7682E-01    170.38  0.0000E+00    180.00
   90.00    150.00      1.94  -999.99     1.94      0.0000      0.00 LINEAR  1.8013E-01    170.38  0.0000E+00    180.00
  100.00    150.00      1.78  -999.99     1.78      0.0000      0.00 LINEAR  1.7682E-01    170.38  0.0000E+00    180.00
  110.00    150.00      1.29  -999.99     1.29      0.0000      0.00 LINEAR  1.6717E-01    170.39  0.0000E+00    180.00
  120.00    150.00      0.46  -999.99     0.46      0.0000      0.00 LINEAR  1.5190E-01    170.41  0.0000E+00    180.00
  130.00    150.00     -0.76  -999.99    -0.76      0.0000      0.00 LINEAR  1.3204E-01    170.42  0.0000E+00    180.00
  140.00    150.00     -2.45  -999.99    -2.45      0.0000      0.00 LINEAR  1.0875E-01    170.44  0.0000E+00    180.00
  150.00    150.00     -4.78  -999.99    -4.78      0.0000      0.00 LINEAR  8.3114E-02    170.46  0.0000E+00    180.00
  160.00    150.00     -8.21  -999.99    -8.21      0.0000      0.00 LINEAR  5.6040E-02    170.48  0.0000E+00    180.00
  170.00    150.00    -14.18  -999.99   -14.18      0.0000      0.00 LINEAR  2.8185E-02    170.49  0.0000E+00    180.00
  180.00    150.00   -999.99  -999.99  -999.99      0.0000      0.00         1.6513E-12     -9.51  0.0000E+00    180.00
    0.00    160.00   -999.99  -999.99  -999.99      0.0000      0.00         0.0000E+00      0.00  0.0000E+00    180.00
   10.00    160.00    -14.18  -999.99   -14.18      0.0000      0.00 LINEAR  2.8185E-02    170.49  0.0000E+00    180.00
   20.00    160.00     -8.21  -999.99    -8.21      0.0000      0.00 LINEAR  5.6040E-02    170.48  0.0000E+00    180.00
   30.00    160.00     -4.78  -999.99    -4.78      0.0000      0.00 LINEAR  8.3114E-02    170.46  0.0000E+00    180.00
   40.00    160.00     -2.45  -999.99    -2.45      0.0000      0.00 LINEAR  1.0875E-01    170.44  0.0000E+00    180.00
   50.00    160.00     -0.76  -999.99    -0.76      0.0000      0.00 LINEAR  1.3204E-01    170.42  0.0000E+00    180.00
   60.00    160.00      0.46  -999.99     0.46      0.0000      0.00 LINEAR  1.5190E-01    170.41  0.0000E+00    180.00
   70.00    160.00      1.29  -999.99     1.29      0.0000      0.00 LINEAR  1.6717E-01    170.39  0.0000E+00    180.00
   80.00    160.00      1.78  -999.99     1.78      0.0000      0.00 LINEAR  1.7682E-01    170.38  0.0000E+00    180.00
   90.00    160.00      1.94  -999.99     1.94      0.0000      0.00 LINEAR  1.8013E-01    170.38  0.0000E+00    180.00
  100.00    160.00      1.78  -999.99     1.78      0.0000      0.00 LINEAR  1.7682E-01    170.38  0.0000E+00    180.00
  110.00    160.00      1.29  -999.99     1.29      0.0000      0.00 LINEAR  1.6717E-01    170.39  0.0000E+00    180.00
  120.00    160.00      0.46  -999.99     0.46      0.0000      0.00 LINEAR  1.5190E-01    170.41  0.0000E+00    180.00
  130.00    160.00     -0.76  -999.99    -0.76      0.0000      0.00 LINEAR  1.3204E-01    170.42  0.0000E+00    180.00
  140.00    160.00     -2.45  -999.99    -2.45      0.0000      0.00 LINEAR  1.0875E-01    170.44  0.0000E+00    180.00
  150.00    160.00     -4.78  -999.99    -4.78      0.0000      0.00 LINEAR  8.3114E-02    170.46  0.0000E+00    180.00
  160.00    160.00     -8.21  -999.99    -8.21      0.0000      0.00 LINEAR  5.6040E-02    170.48  0.0000E+00    180.00
  170.00    160.00    -14.18  -999.99   -14.18      0.0000      0.00 LINEAR  2.8185E-02    170.49  0.0000E+00    180.00
  180.00    160.00   -999.99  -999.99  -999.99      0.0000      0.00         1.6513E-12     -9.51  0.0000E+00    180.00
    0.00    170.00   -999.99  -999.99  -999.99      0.0000      0.00         0.0000E+00      0.00  0.0000E+00    180.00
   10.00    170.00    -14.18  -999.99   -14.18      0.0000      0.00 LINEAR  2.8185E-02    170.49  0.0000E+00    180.00
   20.00    170.00     -8.21  -999.99    -8.21      0.0000      0.00 LINEAR  5.6040E-02    170.48  0.0000E+00    180.00
   30.00    170.00     -4.78  -999.99    -4.78      0.0000      0.00 LINEAR  8.3114E-02    170.46  0.0000E+00    180.00
   40.00    170.00     -2.45  -999.99    -2.45      0.0000      0.00 LINEAR  1.0875E-01    170.44  0.0000E+00    180.00
   50.00    170.00     -0.76  -999.99    -0.76      0.0000      0.00 LINEAR  1.3204E-01    170.42  0.0000E+00    180.00
   60.00    170.00      0.46  -999.99     0.46      0.0000      0.00 LINEAR  1.5190E-01    170.41  0.0000E+00    180.00
   70.00    170.00      1.29  -999.99     1.29      0.0000      0.00 LINEAR  1.6717E-01    170.39  0.0000E+00    180.00
   80.00    170.00      1.78  -999.99     1.78      0.0000      0.00 LINEAR  1.7682E-01    170.38  0.0000E+00    180.00
   90.00    170.00      1.94  -999.99     1.94      0.0000      0.00 LINEAR  1.8013E-01    170.38  0.0000E+00    180.00
  100.00    170.00      1.78  -999.99     1.78      0.0000      0.00 LINEAR  1.7682E-01    170.38  0.0000E+00    180.00
  110.00    170.00      1.29  -999.99     1.29      0.0000      0.00 LINEAR  1.6717E-01    170.39  0.0000E+00    180.00
  120.00    170.00      0.46  -999.99     0.46      0.0000      0.00 LINEAR  1.5190E-01    170.41  0.0000E+00    180.00
  130.00    170.00     -0.76  -999.99    -0.76      0.0000      0.00 LINEAR  1.3204E-01    170.42  0.0000E+00    180.00
  140.00    170.00     -2.45  -999.99    -2.45      0.0000      0.00 LINEAR  1.0875E-01    170.44  0.0000E+00    180.00
  150.00    170.00     -4.78  -999.99    -4.78      0.0000      0.00 LINEAR  8.3114E-02    170.46  0.0000E+00    180.00
  160.00    170.00     -8.21  -999.99    -8.21      0.0000      0.00 LINEAR  5.6040E-02    170.48  0.0000E+00    180.00
  170.00    170.00    -14.18  -999.99   -14.18      0.0000      0.00 LINEAR  2.8185E-02    170.49  0.0000E+00    180.00
  180.00    170.00   -999.99  -999.99  -999.99      0.0000      0.00         1.6513E-12     -9.51  0.0000E+00    180.00
    0.00    180.00   -999.99  -999.99  -999.99      0.0000      0.00         0.0000E+00    180.00  0.0000E+00      0.00
   10.00    180.00    -14.18  -999.99   -14.18      0.0000     -0.00 LINEAR  2.8185E-02    170.49  0.0000E+00      0.00
   20.00    180.00     -8.21  -999.99    -8.21      0.0000     -0.00 LINEAR  5.6040E-02    170.48  0.0000E+00      0.00
   30.00    180.00     -4.78  -999.99    -4.78      0.0000     -0.00 LINEAR  8.3114E-02    170.46  0.0000E+00      0.00
   40.00    180.00     -2.45  -999.99    -2.45      0.0000     -0.00 LINEAR  1.0875E-01    170.44  0.0000E+00      0.00
   50.00    180.00     -0.76  -999.99    -0.76      0.0000     -0.00 LINEAR  1.3204E-01    170.42  0.0000E+00      0.00
   60.00    180.00      0.46  -999.99     0.46      0.0000     -0.00 LINEAR  1.5190E-01    170.41  0.0000E+00      0.00
   70.00    180.00      1.29  -999.99     1.29      0.0000     -0.00 LINEAR  1.6717E-01    170.39  0.0000E+00      0.00
   80.00    180.00      1.78  -999.99     1.78      0.0000     -0.00 LINEAR  1.7682E-01    170.38  0.0000E+00      0.00
   90.00    180.00      1.94  -999.99     1.94      0.0000     -0.00 LINEAR  1.8013E-01    170.38  0.0000E+00      0.00
  100.00    180.00      1.78  -999.99     1.78      0.0000     -0.00 LINEAR  1.7682E-01    170.38  0.0000E+00      0.00
  110.00    180.00      1.29  -999.99     1.29      0.0000     -0.00 LINEAR  1.6717E-01    170.39  0.0000E+00      0.00
  120.00    180.00      0.46  -999.99     0.46      0.0000     -0.00 LINEAR  1.5190E-01    170.41  0.0000E+00      0.00
  130.00    180.00     -0.76  -999.99    -0.76      0.0000     -0.00 LINEAR  1.3204E-01    170.42  0.0000E+00      0.00
  140.00    180.00     -2.45  -999.99    -2.45      0.0000     -0.00 LINEAR  1.0875E-01    170.44  0.0000E+00      0.00
  150.00    180.00     -4.78  -999.99    -4.78      0.0000     -0.00 LINEAR  8.3114E-02    170.46  0.0000E+00      0.00
  160.00    180.00     -8.21  -999.99    -8.21      0.0000     -0.00 LINEAR  5.6040E-02    170.48  0.0000E+00      0.00
  170.00    180.00    -14.18  -999.99   -14.18      0.0000     -0.00 LINEAR  2.8185E-02    170.49  0.0000E+00      0.00
  180.00    180.00   -999.99  -999.99  -999.99      0.0000      0.00         1.6513E-12     -9.51  0.0000E+00      0.00
    0.00    190.00   -999.99  -999.99  -999.99      0.0000      0.00         0.0000E+00    180.00  0.0000E+00      0.00
   10.00    190.00    -14.18  -999.99   -14.18      0.0000     -0.00 LINEAR  2.8185E-02    170.49  0.0000E+00      0.00
   20.00    190.00     -8.21  -999.99    -8.21      0.0000     -0.00 LINEAR  5.6040E-02    170.48  0.0000E+00      0.00
   30.00    190.00     -4.78  -999.99    -4.78      0.0000     -0.00 LINEAR  8.3114E-02    170.46  0.0000E+00      0.00
   40.00    190.00     -2.45  -999.99    -2.45      0.0000     -0.00 LINEAR  1.0875E-01    170.44  0.0000E+00      0.00
   50.00    190.00     -0.76  -999.99    -0.76      0.0000     -0.00 LINEAR  1.3204E-01    170.42  0.0000E+00      0.00
   60.00    190.00      0.46  -999.99     0.46      0.0000     -0.00 LINEAR  1.5190E-01    170.41  0.0000E+00      0.00
   70.00    190.00      1.29  -999.99     1.29      0.0000     -0.00 LINEAR  1.6717E-01    170.39  0.0000E+00      0.00
   80.00    190.00      1.78  -999.99     1.78      0.0000     -0.00 LINEAR  1.7682E-01    170.38  0.0000E+00      0.00
   90.00    190.00      1.94  -999.99     1.94      0.0000     -0.00 LINEAR  1.8013E-01    170.38  0.0000E+00      0.00
  100.00    190.00      1.78  -999.99     1.78      0.0000     -0.00 LINEAR  1.7682E-01    170.38  0.0000E+00      0.00
  110.00    190.00      1.29  -999.99     1.29      0.0000     -0.00 LINEAR  1.6717E-01    170.39  0.0000E+00      0.00
  120.00    190.00      0.46  -999.99     0.46      0.0000     -0.00 LINEAR  1.5190E-01    170.41  0.0000E+00      0.00
  130.00    190.00     -0.76  -999.99    -0.76      0.0000     -0.00 LINEAR  1.3204E-01    170.42  0.0000E+00      0.00
  140.00    190.00     -2.45  -999.99    -2.45      0.0000     -0.00 LINEAR  1.0875E-01    170.44  0.0000E+00      0.00
  150.00    190.00     -4.78  -999.99    -4.78      0.0000     -0.00 LINEAR  8.3114E-02    170.46  0.0000E+00      0.00
  160.00    190.00     -8.21  -999.99    -8.21      0.0000     -0.00 LINEAR  5.6040E-02    170.48  0.0000E+00      0.00
  170.00    190.00    -14.18  -999.99   -14.18      0.0000     -0.00 LINEAR  2.8185E-02    170.49  0.0000E+00      0.00
  180.00    190.00   -999.99  -999.99  -999.99      0.0000      0.00         1.6513E-12     -9.51  0.0000E+00      0.00
    0.00    200.00   -999.99  -999.99  -999.99      0.0000      0.00         0.0000E+00    180.00  0.0000E+00      0.00
   10.00    200.00    -14.18  -999.99   -14.18      0.0000     -0.00 LINEAR  2.8185E-02    170.49  0.0000E+00      0.00
   20.00    200.00     -8.21  -999.99    -8.21      0.0000     -0.00 LINEAR  5.6040E-02    170.48  0.0000E+00      0.00
   30.00    200.00     -4.78  -999.99    -4.78      0.0000     -0.00 LINEAR  8.3114E-02    170.46  0.0000E+00      0.00
   40.00    200.00     -2.45  -999.99    -2.45      0.0000     -0.00 LINEAR  1.0875E-01    170.44  0.0000E+00      0.00
   50.00    200.00     -0.76  -999.99    -0.76      0.0000     -0.00 LINEAR  1.3204E-01    170.42  0.0000E+00      0.00
   60.00    200.00      0.46  -999.99     0.46      0.0000     -0.00 LINEAR  1.5190E-01    170.41  0.0000E+00      0.00
   70.00    200.00      1.29  -999.99     1.29      0.0000     -0.00 LINEAR  1.6717E-01    170.39  0.0000E+00      0.00
   80.00    200.00      1.78  -999.99     1.78      0.0000     -0.00 LINEAR  1.7682E-01    170.38  0.0000E+00      0.00
   90.00    200.00      1.94  -999.99     1.94      0.0000     -0.00 LINEAR  1.8013E-01    170.38  0.0000E+00      0.00
  100.00    200.00      1.78  -999.99     1.78      0.0000     -0.00 LINEAR  1.7682E-01    170.38  0.0000E+00      0.00
  110.00    200.00      1.29  -999.99     1.29      0.0000     -0.00 LINEAR  1.6717E-01    170.39  0.0000E+00      0.00
  120.00    200.00      0.46  -999.99     0.46      0.0000     -0.00 LINEAR  1.5190E-01    170.41  0.0000E+00      0.00
  130.00    200.00     -0.76  -999.99    -0.76      0.0000     -0.00 LINEAR  1.3204E-01    170.42  0.0000E+00      0.00
  140.00    200.00     -2.45  -999.99    -2.45      0.0000     -0.00 LINEAR  1.0875E-01    170.44  0.0000E+00      0.00
  150.00    200.00     -4.78  -999.99    -4.78      0.0000     -0.00 LINEAR  8.3114E-02    170.46  0.0000E+00      0.00
  160.00    200.00     -8.21  -999.99    -8.21      0.0000     -0.00 LINEAR  5.6040E-02    170.48  0.0000E+00      0.00
  170.00    200.00    -14.18  -999.99   -14.18      0.0000     -0.00 LINEAR  2.8185E-02    170.49  0.0000E+00      0.00
  180.00    200.00   -999.99  -999.99  -999.99      0.0000      0.00         1.6513E-12     -9.51  0.0000E+00      0.00
    0.00    210.00   -999.99  -999.99  -999.99      0.0000      0.00         0.0000E+00    180.00  0.0000E+00      0.00
   10.00    210.00    -14.18  -999.99   -14.18      0.0000     -0.00 LINEAR  2.8185E-02    170.49  0.0000E+00      0.00
   20.00    210.00     -8.21  -999.99    -8.21      0.0000     -0.00 LINEAR  5.6040E-02    170.48  0.0000E+00      0.00
   30.00    210.00     -4.78  -999.99    -4.78      0.0000     -0.00 LINEAR  8.3114E-02    170.46  0.0000E+00      0.00
   40.00    210.00     -2.45  -999.99    -2.45      0.0000     -0.00 LINEAR  1.0875E-01    170.44  0.0000E+00      0.00
   50.00    210.00     -0.76  -999.99    -0.76      0.0000     -0.00 LINEAR  1.3204E-01    170.42  0.0000E+00      0.00
   60.00    210.00      0.46  -999.99     0.46      0.0000     -0.00 LINEAR  1.5190E-01    170.41  0.0000E+00      0.00
   70.00    210.00      1.29  -999.99     1.29      0.0000     -0.00 LINEAR  1.6717E-01    170.39  0.0000E+00      0.00
   80.00    210.00      1.78  -999.99     1.78      0.0000     -0.00 LINEAR  1.7682E-01    170.38  0.0000E+00      0.00
   90.00    210.00      1.94  -999.99     1.94      0.0000     -0.00 LINEAR  1.8013E-01    170.38  0.0000E+00      0.00
  100.00    210.00      1.78  -999.99     1.78      0.0000     -0.00 LINEAR  1.7682E-01    170.38  0.0000E+00      0.00
  110.00    210.00      1.29  -999.99     1.29      0.0000     -0.00 LINEAR  1.6717E-01    170.39  0.0000E+00      0.00
  120.00    210.00      0.46  -999.99     0.46      0.0000     -0.00 LINEAR  1.5190E-01    170.41  0.0000E+00      0.00
  130.00    210.00     -0.76  -999.99    -0.76      0.0000     -0.00 LINEAR  1.3204E-01    170.42  0.0000E+00      0.00
  140.00    210.00     -2.45  -999.99    -2.45      0.0000     -0.00 LINEAR  1.0875E-01    170.44  0.0000E+00      0.00
  150.00    210.00     -4.78  -999.99    -4.78      0.0000     -0.00 LINEAR  8.3114E-02    170.46  0.0000E+00      0.00
  160.00    210.00     -8.21  -999.99    -8.21      0.0000     -0.00 LINEAR  5.6040E-02    170.48  0.0000E+00      0.00
  170.00    210.00    -14.18  -999.99   -14.18      0.0000     -0.00 LINEAR  2.8185E-02    170.49  0.0000E+00      0.00
  180.00    210.00   -999.99  -999.99  -999.99      0.0000      0.00         1.6513E-12     -9.51  0.0000E+00      0.00
    0.00    220.00   -999.99  -999.99  -999.99      0.0000      0.00         0.0000E+00    180.00  0.0000E+00      0.00
   10.00    220.00    -14.18  -999.99   -14.18      0.0000     -0.00 LINEAR  2.8185E-02    170.49  0.0000E+00      0.00
   20.00    220.00     -8.21  -999.99    -8.21      0.0000     -0.00 LINEAR  5.6040E-02    170.48  0.0000E+00      0.00
   30.00    220.00     -4.78  -999.99    -4.78      0.0000     -0.00 LINEAR  8.3114E-02    170.46  0.0000E+00      0.00
   40.00    220.00     -2.45  -999.99    -2.45      0.0000     -0.00 LINEAR  1.0875E-01    170.44  0.0000E+00      0.00
   50.00    220.00     -0.76  -999.99    -0.76      0.0000     -0.00 LINEAR  1.3204E-01    170.42  0.0000E+00      0.00
   60.00    220.00      0.46  -999.99     0.46      0.0000     -0.00 LINEAR  1.5190E-01    170.41  0.0000E+00      0.00
   70.00    220.00      1.29  -999.99     1.29      0.0000     -0.00 LINEAR  1.6717E-01    170.39  0.0000E+00      0.00
   80.00    220.00      1.78  -999.99     1.78      0.0000     -0.00 LINEAR  1.7682E-01    170.38  0.0000E+00      0.00
   90.00    220.00      1.94  -999.99     1.94      0.0000     -0.00 LINEAR  1.8013E-01    170.38  0.0000E+00      0.00
  100.00    220.00      1.78  -999.99     1.78      0.0000     -0.00 LINEAR  1.7682E-01    170.38  0.0000E+00      0.00
  110.00    220.00      1.29  -999.99     1.29      0.0000     -0.00 LINEAR  1.6717E-01    170.39  0.0000E+00      0.00
  120.00    220.00      0.46  -999.99     0.46      0.0000     -0.00 LINEAR  1.5190E-01    170.41  0.0000E+00      0.00
  130.00    220.00     -0.76  -999.99    -0.76      0.0000     -0.00 LINEAR  1.3204E-01    170.42  0.0000E+00      0.00
  140.00    220.00     -2.45  -999.99    -2.45      0.0000     -0.00 LINEAR  1.0875E-01    170.44  0.0000E+00      0.00
  150.00    220.00     -4.78  -999.99    -4.78      0.0000     -0.00 LINEAR  8.3114E-02    170.46  0.0000E+00      0.00
  160.00    220.00     -8.21  -999.99    -8.21      0.0000     -0.00 LINEAR  5.6040E-02    170.48  0.0000E+00      0.00
  170.00    220.00    -14.18  -999.99   -14.18      0.0000     -0.00 LINEAR  2.8185E-02    170.49  0.0000E+00      0.00
  180.00    220.00   -999.99  -999.99  -999.99      0.0000      0.00         1.6513E-12     -9.51  0.0000E+00      0.00
    0.00    230.00   -999.99  -999.99  -999.99      0.0000      0.00         0.0000E+00    180.00  0.0000E+00      0.00
   10.00    230.00    -14.18  -999.99   -14.18      0.0000     -0.00 LINEAR  2.8185E-02    170.49  0.0000E+00      0.00
   20.00    230.00     -8.21  -999.99    -8.21      0.0000     -0.00 LINEAR  5.6040E-02    170.48  0.0000E+00      0.00
   30.00    230.00     -4.78  -999.99    -4.78      0.0000     -0.00 LINEAR  8.3114E-02    170.46  0.0000E+00      0.00
   40.00    230.00     -2.45  -999.99    -2.45      0.0000     -0.00 LINEAR  1.0875E-01    170.44  0.0000E+00      0.00
   50.00    230.00     -0.76  -999.99    -0.76      0.0000     -0.00 LINEAR  1.3204E-01    170.42  0.0000E+00      0.00
   60.00    230.00      0.46  -999.99     0.46      0.0000     -0.00 LINEAR  1.5190E-01    170.41  0.0000E+00      0.00
   70.00    230.00      1.29  -999.99     1.29      0.0000     -0.00 LINEAR  1.6717E-01    170.39  0.0000E+00      0.00
   80.00    230.00      1.78  -999.99     1.78      0.0000     -0.00 LINEAR  1.7682E-01    170.38  0.0000E+00      0.00
   90.00    230.00      1.94  -999.99     1.94      0.0000     -0.00 LINEAR  1.8013E-01    170.38  0.0000E+00      0.00
  100.00    230.00      1.78  -999.99     1.78      0.0000     -0.00 LINEAR  1.7682E-01    170.38  0.0000E+00      0.00
  110.00    230.00      1.29  -999.99     1.29      0.0000     -0.00 LINEAR  1.6717E-01    170.39  0.0000E+00      0.00
  120.00    230.00      0.46  -999.99     0.46      0.0000     -0.00 LINEAR  1.5190E-01    170.41  0.0000E+00      0.00
  130.00    230.00     -0.76  -999.99    -0.76      0.0000     -0.00 LINEAR  1.3204E-01    170.42  0.0000E+00      0.00
  140.00    230.00     -2.45  -999.99    -2.45      0.0000     -0.00 LINEAR  1.0875E-01    170.44  0.0000E+00      0.00
  150.00    230.00     -4.78  -999.99    -4.78      0.0000     -0.00 LINEAR  8.3114E-02    170.46  0.0000E+00      0.00
  160.00    230.00     -8.21  -999.99    -8.21      0.0000     -0.00 LINEAR  5.6040E-02    170.48  0.0000E+00      0.00
  170.00    230.00    -14.18  -999.99   -14.18      0.0000     -0.00 LINEAR  2.8185E-02    170.49  0.0000E+00      0.00
  180.00    230.00   -999.99  -999.99  -999.99      0.0000      0.00         1.6513E-12     -9.51  0.0000E+00      0.00
    0.00    240.00   -999.99  -999.99  -999.99      0.0000      0.00         0.0000E+00    180.00  0.0000E+00      0.00
   10.00    240.00    -14.18  -999.99   -14.18      0.0000     -0.00 LINEAR  2.8185E-02    170.49  0.0000E+00      0.00
   20.00    240.00     -8.21  -999.99    -8.21      0.0000     -0.00 LINEAR  5.6040E-02    170.48  0.0000E+00      0.00
   30.00    240.00     -4.78  -999.99    -4.78      0.0000     -0.00 LINEAR  8.3114E-02    170.46  0.0000E+00      0.00
   40.00    240.00     -2.45  -999.99    -2.45      0.0000     -0.00 LINEAR  1.0875E-01    170.44  0.0000E+00      0.00
   50.00    240.00     -0.76  -999.99    -0.76      0.0000     -0.00 LINEAR  1.3204E-01    170.42  0.0000E+00      0.00
   60.00    240.00      0.46  -999.99     0.46      0.0000     -0.00 LINEAR  1.5190E-01    170.41  0.0000E+00      0.00
   70.00    240.00      1.29  -999.99     1.29      0.0000     -0.00 LINEAR  1.6717E-01    170.39  0.0000E+00      0.00
   80.00    240.00      1.78  -999.99     1.78      0.0000     -0.00 LINEAR  1.7682E-01    170.38  0.0000E+00      0.00
   90.00    240.00      1.94  -999.99     1.94      0.0000     -0.00 LINEAR  1.8013E-01    170.38  0.0000E+00      0.00
  100.00    240.00      1.78  -999.99     1.78      0.0000     -0.00 LINEAR  1.7682E-01    170.38  0.0000E+00      0.00
  110.00    240.00      1.29  -999.99     1.29      0.0000     -0.00 LINEAR  1.6717E-01    170.39  0.0000E+00      0.00
  120.00    240.00      0.46  -999.99     0.46      0.0000     -0.00 LINEAR  1.5190E-01    170.41  0.0000E+00      0.00
  130.00    240.00     -0.76  -999.99    -0.76      0.0000     -0.00 LINEAR  1.3204E-01    170.42  0.0000E+00      0.00
  140.00    240.00     -2.45  -999.99    -2.45      0.0000     -0.00 LINEAR  1.0875E-01    170.44  0.0000E+00      0.00
  150.00    240.00     -4.78  -999.99    -4.78      0.0000     -0.00 LINEAR  8.3114E-02    170.46  0.0000E+00      0.00
  160.00    240.00     -8.21  -999.99    -8.21      0.0000     -0.00 LINEAR  5.6040E-02    170.48  0.0000E+00      0.00
  170.00    240.00    -14.18  -999.99   -14.18      0.0000     -0.00 LINEAR  2.8185E-02    170.49  0.0000E+00      0.00
  180.00    240.00   -999.99  -999.99  -999.99      0.0000      0.00         1.6513E-12     -9.51  0.0000E+00      0.00
    0.00    250.00   -999.99  -999.99  -999.99      0.0000      0.00         0.0000E+00    180.00  0.0000E+00      0.00
   10.00    250.00    -14.18  -999.99   -14.18      0.0000     -0.00 LINEAR  2.8185E-02    170.49  0.0000E+00      0.00
   20.00    250.00     -8.21  -999.99    -8.21      0.0000     -0.00 LINEAR  5.6040E-02    170.48  0.0000E+00      0.00
   30.00    250.00     -4.78  -999.99    -4.78      0.0000     -0.00 LINEAR  8.3114E-02    170.46  0.0000E+00      0.00
   40.00    250.00     -2.45  -999.99    -2.45      0.0000     -0.00 LINEAR  1.0875E-01    170.44  0.0000E+00      0.00
   50.00    250.00     -0.76  -999.99    -0.76      0.0000     -0.00 LINEAR  1.3204E-01    170.42  0.0000E+00      0.00
   60.00    250.00      0.46  -999.99     0.46      0.0000     -0.00 LINEAR  1.5190E-01    170.41  0.0000E+00      0.00
   70.00    250.00      1.29  -999.99     1.29      0.0000     -0.00 LINEAR  1.6717E-01    170.39  0.0000E+00      0.00
   80.00    250.00      1.78  -999.99     1.78      0.0000     -0.00 LINEAR  1.7682E-01    170.38  0.0000E+00      0.00
   90.00    250.00      1.94  -999.99     1.94      0.0000     -0.00 LINEAR  1.8013E-01    170.38  0.0000E+00      0.00
  100.00    250.00      1.78  -999.99     1.78      0.0000     -0.00 LINEAR  1.7682E-01    170.38  0.0000E+00      0.00
  110.00    250.00      1.29  -999.99     1.29      0.0000     -0.00 LINEAR  1.6717E-01    170.39  0.0000E+00      0.00
  120.00    250.00      0.46  -999.99     0.46      0.0000     -0.00 LINEAR  1.5190E-01    170.41  0.0000E+00      0.00
  130.00    250.00     -0.76  -999.99    -0.76      0.0000     -0.00 LINEAR  1.3204E-01    170.42  0.0000E+00      0.00
  140.00    250.00     -2.45  -999.99    -2.45      0.0000     -0.00 LINEAR  1.0875E-01    170.44  0.0000E+00      0.00
  150.00    250.00     -4.78  -999.99    -4.78      0.0000     -0.00 LINEAR  8.3114E-02    170.46  0.0000E+00      0.00
  160.00    250.00     -8.21  -999.99    -8.21      0.0000     -0.00 LINEAR  5.6040E-02    170.48  0.0000E+00      0.00
  170.00    250.00    -14.18  -999.99   -14.18      0.0000     -0.00 LINEAR  2.8185E-02    170.49  0.0000E+00      0.00
  180.00    250.00   -999.99  -999.99  -999.99      0.0000      0.00         1.6513E-12     -9.51  0.0000E+00      0.00
    0.00    260.00   -999.99  -999.99  -999.99      0.0000      0.00         0.0000E+00    180.00  0.0000E+00      0.00
   10.00    260.00    -14.18  -999.99   -14.18      0.0000     -0.00 LINEAR  2.8185E-02    170.49  0.0000E+00      0.00
   20.00    260.00     -8.21  -999.99    -8.21      0.0000     -0.00 LINEAR  5.6040E-02    170.48  0.0000E+00      0.00
   30.00    260.00     -4.78  -999.99    -4.78      0.0000     -0.00 LINEAR  8.3114E-02    170.46  0.0000E+00      0.00
   40.00    260.00     -2.45  -999.99    -2.45      0.0000     -0.00 LINEAR  1.0875E-01    170.44  0.0000E+00      0.00
   50.00    260.00     -0.76  -999.99    -0.76      0.0000     -0.00 LINEAR  1.3204E-01    170.42  0.0000E+00      0.00
   60.00    260.00      0.46  -999.99     0.46      0.0000     -0.00 LINEAR  1.5190E-01    170.41  0.0000E+00      0.00
   70.00    260.00      1.29  -999.99     1.29      0.0000     -0.00 LINEAR  1.6717E-01    170.39  0.0000E+00      0.00
   80.00    260.00      1.78  -999.99     1.78      0.0000     -0.00 LINEAR  1.7682E-01    170.38  0.0000E+00      0.00
   90.00    260.00      1.94  -999.99     1.94      0.0000     -0.00 LINEAR  1.8013E-01    170.38  0.0000E+00      0.00
  100.00    260.00      1.78  -999.99     1.78      0.0000     -0.00 LINEAR  1.7682E-01    170.38  0.0000E+00      0.00
  110.00    260.00      1.29  -999.99     1.29      0.0000     -0.00 LINEAR  1.6717E-01    170.39  0.0000E+00      0.00
  120.00    260.00      0.46  -999.99     0.46      0.0000     -0.00 LINEAR  1.5190E-01    170.41  0.0000E+00      0.00
  130.00    260.00     -0.76  -999.99    -0.76      0.0000     -0.00 LINEAR  1.3204E-01    170.42  0.0000E+00      0.00
  140.00    260.00     -2.45  -999.99    -2.45      0.0000     -0.00 LINEAR  1.0875E-01    170.44  0.0000E+00      0.00
  150.00    260.00     -4.78  -999.99    -4.78      0.0000     -0.00 LINEAR  8.3114E-02    170.46  0.0000E+00      0.00
  160.00    260.00     -8.21  -999.99    -8.21      0.0000     -0.00 LINEAR  5.6040E-02    170.48  0.0000E+00      0.00
  170.00    260.00    -14.18  -999.99   -14.18      0.0000     -0.00 LINEAR  2.8185E-02    170.49  0.0000E+00      0.00
  180.00    260.00   -999.99  -999.99  -999.99      0.0000      0.00         1.6513E-12     -9.51  0.0000E+00      0.00
    0.00    270.00   -999.99  -999.99  -999.99      0.0000      0.00         0.0000E+00      0.00  0.0000E+00      0.00
   10.00    270.00    -14.18  -999.99   -14.18      0.0000     -0.00 LINEAR  2.8185E-02    170.49  0.0000E+00      0.00
   20.00    270.00     -8.21  -999.99    -8.21      0.0000     -0.00 LINEAR  5.6040E-02    170.48  0.0000E+00      0.00
   30.00    270.00     -4.78  -999.99    -4.78      0.0000     -0.00 LINEAR  8.3114E-02    170.46  0.0000E+00      0.00
   40.00    270.00     -2.45  -999.99    -2.45      0.0000     -0.00 LINEAR  1.0875E-01    170.44  0.0000E+00      0.00
   50.00    270.00     -0.76  -999.99    -0.76      0.0000     -0.00 LINEAR  1.3204E-01    170.42  0.0000E+00      0.00
   60.00    270.00      0.46  -999.99     0.46      0.0000     -0.00 LINEAR  1.5190E-01    170.41  0.0000E+00      0.00
   70.00    270.00      1.29  -999.99     1.29      0.0000     -0.00 LINEAR  1.6717E-01    170.39  0.0000E+00      0.00
[...]
   60.00    280.00      0.17  -999.99     0.17      0.0000      0.00 LINEAR  2.3826E-01     28.80  0.0000E+00      0.00
   70.00    280.00      1.52  -999.99     1.52      0.0000      0.00 LINEAR  2.7835E-01     28.33  0.0000E+00      0.00
   80.00    280.00      2.34  -999.99     2.34      0.0000      0.00 LINEAR  3.0580E-01     28.04  0.0000E+00      0.00
   90.00    280.00      2.61  -999.99     2.61      0.0000      0.00 LINEAR  3.1559E-01     27.94  0.0000E+00      0.00
  100.00    280.00      2.34  -999.99     2.34      0.0000      0.00 LINEAR  3.0580E-01     28.04  0.0000E+00      0.00
  110.00    280.00      1.52  -999.99     1.52      0.0000      0.00 LINEAR  2.7835E-01     28.33  0.0000E+00      0.00
  120.00    280.00      0.17  -999.99     0.17      0.0000      0.00 LINEAR  2.3826E-01     28.80  0.0000E+00      0.00
  130.00    280.00     -1.71  -999.99    -1.71      0.0000      0.00 LINEAR  1.9195E-01     29.43  0.0000E+00      0.00
  140.00    280.00     -4.13  -999.99    -4.13      0.0000      0.00 LINEAR  1.4526E-01     30.20  0.0000E+00      0.00
  150.00    280.00     -7.19  -999.99    -7.19      0.0000      0.00 LINEAR  1.0213E-01     31.03  0.0000E+00      0.00
  160.00    280.00    -11.23  -999.99   -11.23      0.0000      0.00 LINEAR  6.4131E-02     31.78  0.0000E+00      0.00
  170.00    280.00    -17.62  -999.99   -17.62      0.0000      0.00 LINEAR  3.0740E-02     32.33  0.0000E+00      0.00
  180.00    280.00   -999.99  -999.99  -999.99      0.0000      0.00         1.7705E-12   -147.47  0.0000E+00      0.00
    0.00    290.00   -999.99  -999.99  -999.99      0.0000      0.00         0.0000E+00      0.00  0.0000E+00      0.00
   10.00    290.00    -17.62  -999.99   -17.62      0.0000      0.00 LINEAR  3.0740E-02     32.33  0.0000E+00      0.00
   20.00    290.00    -11.23  -999.99   -11.23      0.0000      0.00 LINEAR  6.4131E-02     31.78  0.0000E+00      0.00
   30.00    290.00     -7.19  -999.99    -7.19      0.0000      0.00 LINEAR  1.0213E-01     31.03  0.0000E+00      0.00
   40.00    290.00     -4.13  -999.99    -4.13      0.0000      0.00 LINEAR  1.4526E-01     30.20  0.0000E+00      0.00
   50.00    290.00     -1.71  -999.99    -1.71      0.0000      0.00 LINEAR  1.9195E-01     29.43  0.0000E+00      0.00
   60.00    290.00      0.17  -999.99     0.17      0.0000      0.00 LINEAR  2.3826E-01     28.80  0.0000E+00      0.00
   70.00    290.00      1.52  -999.99     1.52      0.0000      0.00 LINEAR  2.7835E-01     28.33  0.0000E+00      0.00
   80.00    290.00      2.34  -999.99     2.34      0.0000      0.00 LINEAR  3.0580E-01     28.04  0.0000E+00      0.00
   90.00    290.00      2.61  -999.99     2.61      0.0000      0.00 LINEAR  3.1559E-01     27.94  0.0000E+00      0.00
  100.00    290.00      2.34  -999.99     2.34      0.0000      0.00 LINEAR  3.0580E-01     28.04  0.0000E+00      0.00
  110.00    290.00      1.52  -999.99     1.52      0.0000      0.00 LINEAR  2.7835E-01     28.33  0.0000E+00      0.00
  120.00    290.00      0.17  -999.99     0.17      0.0000      0.00 LINEAR  2.3826E-01     28.80  0.0000E+00      0.00
  130.00    290.00     -1.71  -999.99    -1.71      0.0000      0.00 LINEAR  1.9195E-01     29.43  0.0000E+00      0.00
  140.00    290.00     -4.13  -999.99    -4.13      0.0000      0.00 LINEAR  1.4526E-01     30.20  0.0000E+00      0.00
  150.00    290.00     -7.19  -999.99    -7.19      0.0000      0.00 LINEAR  1.0213E-01     31.03  0.0000E+00      0.00
  160.00    290.00    -11.23  -999.99   -11.23      0.0000      0.00 LINEAR  6.4131E-02     31.78  0.0000E+00      0.00
  170.00    290.00    -17.62  -999.99   -17.62      0.0000      0.00 LINEAR  3.0740E-02     32.33  0.0000E+00      0.00
  180.00    290.00   -999.99  -999.99  -999.99      0.0000      0.00         1.7705E-12   -147.47  0.0000E+00      0.00
    0.00    300.00   -999.99  -999.99  -999.99      0.0000      0.00         0.0000E+00      0.00  0.0000E+00      0.00
   10.00    300.00    -17.62  -999.99   -17.62      0.0000      0.00 LINEAR  3.0740E-02     32.33  0.0000E+00      0.00
   20.00    300.00    -11.23  -999.99   -11.23      0.0000      0.00 LINEAR  6.4131E-02     31.78  0.0000E+00      0.00
   30.00    300.00     -7.19  -999.99    -7.19      0.0000      0.00 LINEAR  1.0213E-01     31.03  0.0000E+00      0.00
   40.00    300.00     -4.13  -999.99    -4.13      0.0000      0.00 LINEAR  1.4526E-01     30.20  0.0000E+00      0.00
   50.00    300.00     -1.71  -999.99    -1.71      0.0000      0.00 LINEAR  1.9195E-01     29.43  0.0000E+00      0.00
   60.00    300.00      0.17  -999.99     0.17      0.0000      0.00 LINEAR  2.3826E-01     28.80  0.0000E+00      0.00
   70.00    300.00      1.52  -999.99     1.52      0.0000      0.00 LINEAR  2.7835E-01     28.33  0.0000E+00      0.00
   80.00    300.00      2.34  -999.99     2.34      0.0000      0.00 LINEAR  3.0580E-01     28.04  0.0000E+00      0.00
   90.00    300.00      2.61  -999.99     2.61      0.0000      0.00 LINEAR  3.1559E-01     27.94  0.0000E+00      0.00
  100.00    300.00      2.34  -999.99     2.34      0.0000      0.00 LINEAR  3.0580E-01     28.04  0.0000E+00      0.00
  110.00    300.00      1.52  -999.99     1.52      0.0000      0.00 LINEAR  2.7835E-01     28.33  0.0000E+00      0.00
  120.00    300.00      0.17  -999.99     0.17      0.0000      0.00 LINEAR  2.3826E-01     28.80  0.0000E+00      0.00
  130.00    300.00     -1.71  -999.99    -1.71      0.0000      0.00 LINEAR  1.9195E-01     29.43  0.0000E+00      0.00
  140.00    300.00     -4.13  -999.99    -4.13      0.0000      0.00 LINEAR  1.4526E-01     30.20  0.0000E+00      0.00
  150.00    300.00     -7.19  -999.99    -7.19      0.0000      0.00 LINEAR  1.0213E-01     31.03  0.0000E+00      0.00
  160.00    300.00    -11.23  -999.99   -11.23      0.0000      0.00 LINEAR  6.4131E-02     31.78  0.0000E+00      0.00
  170.00    300.00    -17.62  -999.99   -17.62      0.0000      0.00 LINEAR  3.0740E-02     32.33  0.0000E+00      0.00
  180.00    300.00   -999.99  -999.99  -999.99      0.0000      0.00         1.7705E-12   -147.47  0.0000E+00      0.00
    0.00    310.00   -999.99  -999.99  -999.99      0.0000      0.00         0.0000E+00      0.00  0.0000E+00      0.00
   10.00    310.00    -17.62  -999.99   -17.62      0.0000      0.00 LINEAR  3.0740E-02     32.33  0.0000E+00      0.00
   20.00    310.00    -11.23  -999.99   -11.23      0.0000      0.00 LINEAR  6.4131E-02     31.78  0.0000E+00      0.00
   30.00    310.00     -7.19  -999.99    -7.19      0.0000      0.00 LINEAR  1.0213E-01     31.03  0.0000E+00      0.00
   40.00    310.00     -4.13  -999.99    -4.13      0.0000      0.00 LINEAR  1.4526E-01     30.20  0.0000E+00      0.00
   50.00    310.00     -1.71  -999.99    -1.71      0.0000      0.00 LINEAR  1.9195E-01     29.43  0.0000E+00      0.00
   60.00    310.00      0.17  -999.99     0.17      0.0000      0.00 LINEAR  2.3826E-01     28.80  0.0000E+00      0.00
   70.00    310.00      1.52  -999.99     1.52      0.0000      0.00 LINEAR  2.7835E-01     28.33  0.0000E+00      0.00
   80.00    310.00      2.34  -999.99     2.34      0.0000      0.00 LINEAR  3.0580E-01     28.04  0.0000E+00      0.00
   90.00    310.00      2.61  -999.99     2.61      0.0000      0.00 LINEAR  3.1559E-01     27.94  0.0000E+00      0.00
  100.00    310.00      2.34  -999.99     2.34      0.0000      0.00 LINEAR  3.0580E-01     28.04  0.0000E+00      0.00
  110.00    310.00      1.52  -999.99     1.52      0.0000      0.00 LINEAR  2.7835E-01     28.33  0.0000E+00      0.00
  120.00    310.00      0.17  -999.99     0.17      0.0000      0.00 LINEAR  2.3826E-01     28.80  0.0000E+00      0.00
  130.00    310.00     -1.71  -999.99    -1.71      0.0000      0.00 LINEAR  1.9195E-01     29.43  0.0000E+00      0.00
  140.00    310.00     -4.13  -999.99    -4.13      0.0000      0.00 LINEAR  1.4526E-01     30.20  0.0000E+00      0.00
  150.00    310.00     -7.19  -999.99    -7.19      0.0000      0.00 LINEAR  1.0213E-01     31.03  0.0000E+00      0.00
  160.00    310.00    -11.23  -999.99   -11.23      0.0000      0.00 LINEAR  6.4131E-02     31.78  0.0000E+00      0.00
  170.00    310.00    -17.62  -999.99   -17.62      0.0000      0.00 LINEAR  3.0740E-02     32.33  0.0000E+00      0.00
  180.00    310.00   -999.99  -999.99  -999.99      0.0000      0.00         1.7705E-12   -147.47  0.0000E+00      0.00
    0.00    320.00   -999.99  -999.99  -999.99      0.0000      0.00         0.0000E+00      0.00  0.0000E+00      0.00
   10.00    320.00    -17.62  -999.99   -17.62      0.0000      0.00 LINEAR  3.0740E-02     32.33  0.0000E+00      0.00
   20.00    320.00    -11.23  -999.99   -11.23      0.0000      0.00 LINEAR  6.4131E-02     31.78  0.0000E+00      0.00
   30.00    320.00     -7.19  -999.99    -7.19      0.0000      0.00 LINEAR  1.0213E-01     31.03  0.0000E+00      0.00
   40.00    320.00     -4.13  -999.99    -4.13      0.0000      0.00 LINEAR  1.4526E-01     30.20  0.0000E+00      0.00
   50.00    320.00     -1.71  -999.99    -1.71      0.0000      0.00 LINEAR  1.9195E-01     29.43  0.0000E+00      0.00
   60.00    320.00      0.17  -999.99     0.17      0.0000      0.00 LINEAR  2.3826E-01     28.80  0.0000E+00      0.00
   70.00    320.00      1.52  -999.99     1.52      0.0000      0.00 LINEAR  2.7835E-01     28.33  0.0000E+00      0.00
   80.00    320.00      2.34  -999.99     2.34      0.0000      0.00 LINEAR  3.0580E-01     28.04  0.0000E+00      0.00
   90.00    320.00      2.61  -999.99     2.61      0.0000      0.00 LINEAR  3.1559E-01     27.94  0.0000E+00      0.00
  100.00    320.00      2.34  -999.99     2.34      0.0000      0.00 LINEAR  3.0580E-01     28.04  0.0000E+00      0.00
  110.00    320.00      1.52  -999.99     1.52      0.0000      0.00 LINEAR  2.7835E-01     28.33  0.0000E+00      0.00
  120.00    320.00      0.17  -999.99     0.17      0.0000      0.00 LINEAR  2.3826E-01     28.80  0.0000E+00      0.00
  130.00    320.00     -1.71  -999.99    -1.71      0.0000      0.00 LINEAR  1.9195E-01     29.43  0.0000E+00      0.00
  140.00    320.00     -4.13  -999.99    -4.13      0.0000      0.00 LINEAR  1.4526E-01     30.20  0.0000E+00      0.00
  150.00    320.00     -7.19  -999.99    -7.19      0.0000      0.00 LINEAR  1.0213E-01     31.03  0.0000E+00      0.00
  160.00    320.00    -11.23  -999.99   -11.23      0.0000      0.00 LINEAR  6.4131E-02     31.78  0.0000E+00      0.00
  170.00    320.00    -17.62  -999.99   -17.62      0.0000      0.00 LINEAR  3.0740E-02     32.33  0.0000E+00      0.00
  180.00    320.00   -999.99  -999.99  -999.99      0.0000      0.00         1.7705E-12   -147.47  0.0000E+00      0.00
    0.00    330.00   -999.99  -999.99  -999.99      0.0000      0.00         0.0000E+00      0.00  0.0000E+00      0.00
   10.00    330.00    -17.62  -999.99   -17.62      0.0000      0.00 LINEAR  3.0740E-02     32.33  0.0000E+00      0.00
   20.00    330.00    -11.23  -999.99   -11.23      0.0000      0.00 LINEAR  6.4131E-02     31.78  0.0000E+00      0.00
   30.00    330.00     -7.19  -999.99    -7.19      0.0000      0.00 LINEAR  1.0213E-01     31.03  0.0000E+00      0.00
   40.00    330.00     -4.13  -999.99    -4.13      0.0000      0.00 LINEAR  1.4526E-01     30.20  0.0000E+00      0.00
   50.00    330.00     -1.71  -999.99    -1.71      0.0000      0.00 LINEAR  1.9195E-01     29.43  0.0000E+00      0.00
   60.00    330.00      0.17  -999.99     0.17      0.0000      0.00 LINEAR  2.3826E-01     28.80  0.0000E+00      0.00
   70.00    330.00      1.52  -999.99     1.52      0.0000      0.00 LINEAR  2.7835E-01     28.33  0.0000E+00      0.00
   80.00    330.00      2.34  -999.99     2.34      0.0000      0.00 LINEAR  3.0580E-01     28.04  0.0000E+00      0.00
   90.00    330.00      2.61  -999.99     2.61      0.0000      0.00 LINEAR  3.1559E-01     27.94  0.0000E+00      0.00
  100.00    330.00      2.34  -999.99     2.34      0.0000      0.00 LINEAR  3.0580E-01     28.04  0.0000E+00      0.00
  110.00    330.00      1.52  -999.99     1.52      0.0000      0.00 LINEAR  2.7835E-01     28.33  0.0000E+00      0.00
  120.00    330.00      0.17  -999.99     0.17      0.0000      0.00 LINEAR  2.3826E-01     28.80  0.0000E+00      0.00
  130.00    330.00     -1.71  -999.99    -1.71      0.0000      0.00 LINEAR  1.9195E-01     29.43  0.0000E+00      0.00
  140.00    330.00     -4.13  -999.99    -4.13      0.0000      0.00 LINEAR  1.4526E-01     30.20  0.0000E+00      0.00
  150.00    330.00     -7.19  -999.99    -7.19      0.0000      0.00 LINEAR  1.0213E-01     31.03  0.0000E+00      0.00
  160.00    330.00    -11.23  -999.99   -11.23      0.0000      0.00 LINEAR  6.4131E-02     31.78  0.0000E+00      0.00
  170.00    330.00    -17.62  -999.99   -17.62      0.0000      0.00 LINEAR  3.0740E-02     32.33  0.0000E+00      0.00
  180.00    330.00   -999.99  -999.99  -999.99      0.0000      0.00         1.7705E-12   -147.47  0.0000E+00      0.00
    0.00    340.00   -999.99  -999.99  -999.99      0.0000      0.00         0.0000E+00      0.00  0.0000E+00      0.00
   10.00    340.00    -17.62  -999.99   -17.62      0.0000      0.00 LINEAR  3.0740E-02     32.33  0.0000E+00      0.00
   20.00    340.00    -11.23  -999.99   -11.23      0.0000      0.00 LINEAR  6.4131E-02     31.78  0.0000E+00      0.00
   30.00    340.00     -7.19  -999.99    -7.19      0.0000      0.00 LINEAR  1.0213E-01     31.03  0.0000E+00      0.00
   40.00    340.00     -4.13  -999.99    -4.13      0.0000      0.00 LINEAR  1.4526E-01     30.20  0.0000E+00      0.00
   50.00    340.00     -1.71  -999.99    -1.71      0.0000      0.00 LINEAR  1.9195E-01     29.43  0.0000E+00      0.00
   60.00    340.00      0.17  -999.99     0.17      0.0000      0.00 LINEAR  2.3826E-01     28.80  0.0000E+00      0.00
   70.00    340.00      1.52  -999.99     1.52      0.0000      0.00 LINEAR  2.7835E-01     28.33  0.0000E+00      0.00
   80.00    340.00      2.34  -999.99     2.34      0.0000      0.00 LINEAR  3.0580E-01     28.04  0.0000E+00      0.00
   90.00    340.00      2.61  -999.99     2.61      0.0000      0.00 LINEAR  3.1559E-01     27.94  0.0000E+00      0.00
  100.00    340.00      2.34  -999.99     2.34      0.0000      0.00 LINEAR  3.0580E-01     28.04  0.0000E+00      0.00
  110.00    340.00      1.52  -999.99     1.52      0.0000      0.00 LINEAR  2.7835E-01     28.33  0.0000E+00      0.00
  120.00    340.00      0.17  -999.99     0.17      0.0000      0.00 LINEAR  2.3826E-01     28.80  0.0000E+00      0.00
  130.00    340.00     -1.71  -999.99    -1.71      0.0000      0.00 LINEAR  1.9195E-01     29.43  0.0000E+00      0.00
  140.00    340.00     -4.13  -999.99    -4.13      0.0000      0.00 LINEAR  1.4526E-01     30.20  0.0000E+00      0.00
  150.00    340.00     -7.19  -999.99    -7.19      0.0000      0.00 LINEAR  1.0213E-01     31.03  0.0000E+00      0.00
  160.00    340.00    -11.23  -999.99   -11.23      0.0000      0.00 LINEAR  6.4131E-02     31.78  0.0000E+00      0.00
  170.00    340.00    -17.62  -999.99   -17.62      0.0000      0.00 LINEAR  3.0740E-02     32.33  0.0000E+00      0.00
  180.00    340.00   -999.99  -999.99  -999.99      0.0000      0.00         1.7705E-12   -147.47  0.0000E+00      0.00
    0.00    350.00   -999.99  -999.99  -999.99      0.0000      0.00         0.0000E+00      0.00  0.0000E+00      0.00
   10.00    350.00    -17.62  -999.99   -17.62      0.0000      0.00 LINEAR  3.0740E-02     32.33  0.0000E+00      0.00
   20.00    350.00    -11.23  -999.99   -11.23      0.0000      0.00 LINEAR  6.4131E-02     31.78  0.0000E+00      0.00
   30.00    350.00     -7.19  -999.99    -7.19      0.0000      0.00 LINEAR  1.0213E-01     31.03  0.0000E+00      0.00
   40.00    350.00     -4.13  -999.99    -4.13      0.0000      0.00 LINEAR  1.4526E-01     30.20  0.0000E+00      0.00
   50.00    350.00     -1.71  -999.99    -1.71      0.0000      0.00 LINEAR  1.9195E-01     29.43  0.0000E+00      0.00
   60.00    350.00      0.17  -999.99     0.17      0.0000      0.00 LINEAR  2.3826E-01     28.80  0.0000E+00      0.00
   70.00    350.00      1.52  -999.99     1.52      0.0000      0.00 LINEAR  2.7835E-01     28.33  0.0000E+00      0.00
   80.00    350.00      2.34  -999.99     2.34      0.0000      0.00 LINEAR  3.0580E-01     28.04  0.0000E+00      0.00
   90.00    350.00      2.61  -999.99     2.61      0.0000      0.00 LINEAR  3.1559E-01     27.94  0.0000E+00      0.00
  100.00    350.00      2.34  -999.99     2.34      0.0000      0.00 LINEAR  3.0580E-01     28.04  0.0000E+00      0.00
  110.00    350.00      1.52  -999.99     1.52      0.0000      0.00 LINEAR  2.7835E-01     28.33  0.0000E+00      0.00
  120.00    350.00      0.17  -999.99     0.17      0.0000      0.00 LINEAR  2.3826E-01     28.80  0.0000E+00      0.00
  130.00    350.00     -1.71  -999.99    -1.71      0.0000      0.00 LINEAR  1.9195E-01     29.43  0.0000E+00      0.00
  140.00    350.00     -4.13  -999.99    -4.13      0.0000      0.00 LINEAR  1.4526E-01     30.20  0.0000E+00      0.00
  150.00    350.00     -7.19  -999.99    -7.19      0.0000      0.00 LINEAR  1.0213E-01     31.03  0.0000E+00      0.00
  160.00    350.00    -11.23  -999.99   -11.23      0.0000      0.00 LINEAR  6.4131E-02     31.78  0.0000E+00      0.00
  170.00    350.00    -17.62  -999.99   -17.62      0.0000      0.00 LINEAR  3.0740E-02     32.33  0.0000E+00      0.00
  180.00    350.00   -999.99  -999.99  -999.99      0.0000      0.00         1.7705E-12   -147.47  0.0000E+00      0.00
    0.00    360.00   -999.99  -999.99  -999.99      0.0000      0.00         0.0000E+00      0.00  0.0000E+00      0.00
   10.00    360.00    -17.62  -999.99   -17.62      0.0000      0.00 LINEAR  3.0740E-02     32.33  0.0000E+00      0.00
   20.00    360.00    -11.23  -999.99   -11.23      0.0000      0.00 LINEAR  6.4131E-02     31.78  0.0000E+00      0.00
   30.00    360.00     -7.19  -999.99    -7.19      0.0000      0.00 LINEAR  1.0213E-01     31.03  0.0000E+00      0.00
   40.00    360.00     -4.13  -999.99    -4.13      0.0000      0.00 LINEAR  1.4526E-01     30.20  0.0000E+00      0.00
   50.00    360.00     -1.71  -999.99    -1.71      0.0000      0.00 LINEAR  1.9195E-01     29.43  0.0000E+00      0.00
   60.00    360.00      0.17  -999.99     0.17      0.0000      0.00 LINEAR  2.3826E-01     28.80  0.0000E+00      0.00
   70.00    360.00      1.52  -999.99     1.52      0.0000      0.00 LINEAR  2.7835E-01     28.33  0.0000E+00      0.00
   80.00    360.00      2.34  -999.99     2.34      0.0000      0.00 LINEAR  3.0580E-01     28.04  0.0000E+00      0.00
   90.00    360.00      2.61  -999.99     2.61      0.0000      0.00 LINEAR  3.1559E-01     27.94  0.0000E+00      0.00
  100.00    360.00      2.34  -999.99     2.34      0.0000      0.00 LINEAR  3.0580E-01     28.04  0.0000E+00      0.00
  110.00    360.00      1.52  -999.99     1.52      0.0000      0.00 LINEAR  2.7835E-01     28.33  0.0000E+00      0.00
  120.00    360.00      0.17  -999.99     0.17      0.0000      0.00 LINEAR  2.3826E-01     28.80  0.0000E+00      0.00
  130.00    360.00     -1.71  -999.99    -1.71      0.0000      0.00 LINEAR  1.9195E-01     29.43  0.0000E+00      0.00
  140.00    360.00     -4.13  -999.99    -4.13      0.0000      0.00 LINEAR  1.4526E-01     30.20  0.0000E+00      0.00
  150.00    360.00     -7.19  -999.99    -7.19      0.0000      0.00 LINEAR  1.0213E-01     31.03  0.0000E+00      0.00
  160.00    360.00    -11.23  -999.99   -11.23      0.0000      0.00 LINEAR  6.4131E-02     31.78  0.0000E+00      0.00
  170.00    360.00    -17.62  -999.99   -17.62      0.0000      0.00 LINEAR  3.0740E-02     32.33  0.0000E+00      0.00
  180.00    360.00   -999.99  -999.99  -999.99      0.0000      0.00         1.7705E-12   -147.47  0.0000E+00      0.00
  DATA CARD No:   6 EN   0     0     0     0  0.00000E+00  0.00000E+00  0.00000E+00  0.00000E+00  0.00000E+00  0.00000E+00

  TOTAL RUN TIME: 30 msec